@<TRIPOS>MOLECULE
MG0
  147   154     1     0     0
SMALL
resp


@<TRIPOS>ATOM
      1 C1           5.2070     3.3150     0.0510 c3         1 MG0      -0.013557
      2 O1           3.8080     3.4070    -0.1320 os         1 MG0      -0.305304
      3 C2           5.8190     2.6540    -1.1920 c3         1 MG0       0.310775
      4 O2           5.5960     3.3600    -2.3950 oh         1 MG0      -0.693727
      5 C3           5.3090     1.2150    -1.3030 c3         1 MG0       0.092725
      6 O3           5.9220     0.5660    -2.4130 oh         1 MG0      -0.661673
      7 C4           5.6410     0.4430    -0.0350 c3         1 MG0       0.166897
      8 C5           5.0940     1.1790     1.2010 c3         1 MG0      -0.110042
      9 O4           5.5220     2.5580     1.2050 os         1 MG0      -0.309361
     10 C6           5.6250     0.6010     2.5120 c3         1 MG0       0.245750
     11 O5           7.0370     0.7030     2.5940 oh         1 MG0      -0.652669
     12 H1           5.6380     4.3060     0.2260 h2         1 MG0       0.173699
     13 H2           6.9070     2.6230    -1.0530 h1         1 MG0       0.071850
     14 H3           4.6910     3.7410    -2.3990 ho         1 MG0       0.439606
     15 H4           4.2170     1.2310    -1.4330 h1         1 MG0       0.078226
     16 H5           5.8980     1.2130    -3.1420 ho         1 MG0       0.452496
     17 H6           6.7290     0.3460     0.0610 h1         1 MG0       0.102753
     18 H7           3.9970     1.1310     1.1870 h1         1 MG0       0.110143
     19 H8           5.1350     1.1190     3.3510 h1         1 MG0       0.042546
     20 H9           5.3820    -0.4630     2.5700 h1         1 MG0       0.042546
     21 H10          7.2430     1.6470     2.4870 ho         1 MG0       0.416320
     22 C7           0.6530     6.1350     0.0500 c3         1 MG0      -0.013557
     23 O6          -0.2900     5.0990    -0.1330 os         1 MG0      -0.305304
     24 C8           1.5530     6.2010    -1.1920 c3         1 MG0       0.310775
     25 O7           0.8630     6.4640    -2.3970 oh         1 MG0      -0.693727
     26 C9           2.3610     4.9050    -1.3010 c3         1 MG0       0.092725
     27 O8           3.2520     4.9790    -2.4110 oh         1 MG0      -0.661673
     28 C10          3.1700     4.6840    -0.0330 c3         1 MG0       0.166897
     29 C11          2.2520     4.7160     1.2030 c3         1 MG0      -0.110042
     30 O9           1.4400     5.9100     1.2050 os         1 MG0      -0.309361
     31 C12          3.0340     4.7720     2.5140 c3         1 MG0       0.245750
     32 O10          3.8330     5.9410     2.5960 oh         1 MG0      -0.652669
     33 H11          0.1470     7.0900     0.2240 h2         1 MG0       0.173699
     34 H12          2.2540     7.0320    -1.0540 h1         1 MG0       0.071850
     35 H13          0.0020     5.9900    -2.4020 ho         1 MG0       0.439606
     36 H14          1.6690     4.0610    -1.4320 h1         1 MG0       0.078226
     37 H15          2.7320     5.3630    -3.1400 ho         1 MG0       0.452496
     38 H16          3.9240     5.4750     0.0640 h1         1 MG0       0.102753
     39 H17          1.6070     3.8280     1.1880 h1         1 MG0       0.110143
     40 H18          2.3230     4.7120     3.3530 h1         1 MG0       0.042546
     41 H19          3.7140     3.9190     2.5730 h1         1 MG0       0.042546
     42 H20          3.2230     6.6890     2.4880 ho         1 MG0       0.416320
     43 C13         -4.3910     4.3370     0.0440 c3         1 MG0      -0.013557
     44 O11         -4.1700     2.9530    -0.1360 os         1 MG0      -0.305304
     45 C14         -3.8790     5.0780    -1.1990 c3         1 MG0       0.310775
     46 O12         -4.5130     4.7010    -2.4040 oh         1 MG0      -0.693727
     47 C15         -2.3620     4.9010    -1.3050 c3         1 MG0       0.092725
     48 O13         -1.8620     5.6400    -2.4150 oh         1 MG0      -0.661673
     49 C16         -1.6870     5.3970    -0.0370 c3         1 MG0       0.166897
     50 C17         -2.2870     4.7030     1.1990 c3         1 MG0      -0.110042
     51 O14         -3.7260     4.8140     1.1990 os         1 MG0      -0.309361
     52 C18         -1.8440     5.3500     2.5100 c3         1 MG0       0.245750
     53 O15         -2.2560     6.7050     2.5890 oh         1 MG0      -0.652669
     54 H21         -5.4530     4.5380     0.2150 h2         1 MG0       0.173699
     55 H22         -4.0910     6.1460    -1.0630 h1         1 MG0       0.071850
     56 H23         -4.6830     3.7340    -2.4070 ho         1 MG0       0.439606
     57 H24         -2.1340     3.8320    -1.4330 h1         1 MG0       0.078226
     58 H25         -2.4850     5.4720    -3.1460 ho         1 MG0       0.452496
     59 H26         -1.8340     6.4800     0.0570 h1         1 MG0       0.102753
     60 H27         -1.9960     3.6440     1.1870 h1         1 MG0       0.110143
     61 H28         -2.2430     4.7590     3.3490 h1         1 MG0       0.042546
     62 H29         -0.7530     5.3480     2.5720 h1         1 MG0       0.042546
     63 H30         -3.2220     6.6960     2.4790 ho         1 MG0       0.416320
     64 C19         -6.1310    -0.7280     0.0490 c3         1 MG0      -0.013557
     65 O16         -4.9100    -1.4180    -0.1320 os         1 MG0      -0.305304
     66 C20         -6.3920     0.1320    -1.1950 c3         1 MG0       0.310775
     67 O17         -6.4950    -0.6010    -2.3990 oh         1 MG0      -0.693727
     68 C21         -5.3090     1.2080    -1.3040 c3         1 MG0       0.092725
     69 O18         -5.5760     2.0580    -2.4150 oh         1 MG0      -0.661673
     70 C22         -5.2750     2.0480    -0.0370 c3         1 MG0       0.166897
     71 C23         -5.1050     1.1470     1.2010 c3         1 MG0      -0.110042
     72 O19         -6.0880     0.0910     1.2030 os         1 MG0      -0.309361
     73 C24         -5.3350     1.8990     2.5100 c3         1 MG0       0.245750
     74 O20         -6.6520     2.4200     2.5890 oh         1 MG0      -0.652669
     75 H31         -6.9490    -1.4340     0.2220 h2         1 MG0       0.173699
     76 H32         -7.3590     0.6320    -1.0580 h1         1 MG0       0.071850
     77 H33         -5.8440    -1.3360    -2.4010 ho         1 MG0       0.439606
     78 H34         -4.3310     0.7200    -1.4320 h1         1 MG0       0.078226
     79 H35         -5.8340     1.4650    -3.1440 ho         1 MG0       0.452496
     80 H36         -6.2130     2.6070     0.0570 h1         1 MG0       0.102753
     81 H37         -4.0950     0.7150     1.1890 h1         1 MG0       0.110143
     82 H38         -5.1200     1.2210     3.3500 h1         1 MG0       0.042546
     83 H39         -4.6540     2.7520     2.5700 h1         1 MG0       0.042546
     84 H40         -7.2460     1.6580     2.4810 ho         1 MG0       0.416320
     85 C25         -3.2520    -5.2450     0.0520 c3         1 MG0      -0.013557
     86 O21         -1.9520    -4.7200    -0.1310 os         1 MG0      -0.305304
     87 C26         -4.0900    -4.9140    -1.1910 c3         1 MG0       0.310775
     88 O22         -3.5810    -5.4500    -2.3950 oh         1 MG0      -0.693727
     89 C27         -4.2560    -3.3960    -1.3000 c3         1 MG0       0.092725
     90 O23         -5.0900    -3.0760    -2.4100 oh         1 MG0      -0.661673
     91 C28         -4.8900    -2.8450    -0.0320 c3         1 MG0       0.166897
     92 C29         -4.0770    -3.2730     1.2040 c3         1 MG0      -0.110042
     93 O24         -3.8640    -4.7000     1.2060 os         1 MG0      -0.309361
     94 C30         -4.8060    -2.9830     2.5150 c3         1 MG0       0.245750
     95 O25         -6.0340    -3.6880     2.5970 oh         1 MG0      -0.652669
     96 H41         -3.2100    -6.3240     0.2250 h2         1 MG0       0.173699
     97 H42         -5.0830    -5.3590    -1.0530 h1         1 MG0       0.071850
     98 H43         -2.6010    -5.3970    -2.3990 ho         1 MG0       0.439606
     99 H44         -3.2660    -2.9350    -1.4300 h1         1 MG0       0.078226
    100 H45         -4.7870    -3.6470    -3.1390 ho         1 MG0       0.452496
    101 H46         -5.9120    -3.2310     0.0640 h1         1 MG0       0.102753
    102 H47         -3.1100    -2.7530     1.1900 h1         1 MG0       0.110143
    103 H48         -4.1390    -3.2380     3.3530 h1         1 MG0       0.042546
    104 H49         -5.0480    -1.9190     2.5740 h1         1 MG0       0.042546
    105 H50         -5.8090    -4.6280     2.4890 ho         1 MG0       0.416320
    106 C31          2.0740    -5.8120     0.0480 c3         1 MG0      -0.013557
    107 O26          2.4750    -4.4680    -0.1350 os         1 MG0      -0.305304
    108 C32          1.2910    -6.2590    -1.1940 c3         1 MG0       0.310775
    109 O27          2.0260    -6.1970    -2.3990 oh         1 MG0      -0.693727
    110 C33          0.0010    -5.4420    -1.3010 c3         1 MG0       0.092725
    111 C34         -0.8230    -5.5950    -0.0330 c3         1 MG0       0.166897
    112 C35          0.0190    -5.2270     1.2030 c3         1 MG0      -0.110042
    113 O28          1.2680    -5.9500     1.2030 os         1 MG0      -0.309361
    114 C36         -0.6600    -5.6160     2.5140 c3         1 MG0       0.245750
    115 O29         -0.8750    -7.0150     2.5950 oh         1 MG0      -0.652669
    116 O30         -0.7710    -5.8940    -2.4110 oh         1 MG0      -0.661673
    117 H51          2.9440    -6.4520     0.2200 h2         1 MG0       0.173699
    118 H52          1.0190    -7.3130    -1.0560 h1         1 MG0       0.071850
    119 H53          2.5970    -5.3980    -2.4040 ho         1 MG0       0.439606
    120 H54          0.2580    -4.3810    -1.4320 h1         1 MG0       0.078226
    121 H55         -0.1360    -6.0150    -3.1410 ho         1 MG0       0.452496
    122 H56         -1.1590    -6.6340     0.0630 h1         1 MG0       0.102753
    123 H57          0.2160    -4.1460     1.1880 h1         1 MG0       0.110143
    124 H58         -0.0450    -5.2540     3.3520 h1         1 MG0       0.042546
    125 H59         -1.6430    -5.1420     2.5740 h1         1 MG0       0.042546
    126 H60         -0.0010    -7.4260     2.4860 ho         1 MG0       0.416320
    127 C37          5.8390    -2.0030     0.0430 c3         1 MG0      -0.013557
    128 O31          5.0390    -0.8520    -0.1360 os         1 MG0      -0.305304
    129 C38          5.6990    -2.8920    -1.2010 c3         1 MG0       0.310775
    130 O32          6.1060    -2.2760    -2.4050 oh         1 MG0      -0.693727
    131 C39          4.2560    -3.3910    -1.3070 c3         1 MG0       0.092725
    132 O33          4.1260    -4.2730    -2.4180 oh         1 MG0      -0.661673
    133 C40          3.8630    -4.1320    -0.0390 c3         1 MG0       0.166897
    134 C41          4.1020    -3.2470     1.1980 c3         1 MG0      -0.110042
    135 O34          5.4470    -2.7220     1.1980 os         1 MG0      -0.309361
    136 C42          3.9860    -4.0230     2.5080 c3         1 MG0       0.245750
    137 O35          4.9460    -5.0650     2.5860 oh         1 MG0      -0.652669
    138 H61          6.8830    -1.7230     0.2140 h2         1 MG0       0.173699
    139 H62          6.3540    -3.7620    -1.0660 h1         1 MG0       0.071850
    140 H63          5.8380    -1.3310    -2.4070 ho         1 MG0       0.439606
    141 H64          3.5870    -2.5270    -1.4340 h1         1 MG0       0.078226
    142 H65          4.6140    -3.8510    -3.1480 ho         1 MG0       0.452496
    143 H66          4.4650    -5.0440     0.0550 h1         1 MG0       0.102753
    144 H67          3.3810    -2.4190     1.1870 h1         1 MG0       0.110143
    145 H68          4.0880    -3.3190     3.3480 h1         1 MG0       0.042546
    146 H69          3.0020    -4.4960     2.5690 h1         1 MG0       0.042546
    147 H70          5.8110    -4.6370     2.4760 ho         1 MG0       0.416320
@<TRIPOS>BOND
     1     1     2 1   
     2     1     3 1   
     3     1     9 1   
     4     1    12 1   
     5     2    28 1   
     6     3     4 1   
     7     3     5 1   
     8     3    13 1   
     9     4    14 1   
    10     5     6 1   
    11     5     7 1   
    12     5    15 1   
    13     6    16 1   
    14     7     8 1   
    15     7    17 1   
    16     7   128 1   
    17     8     9 1   
    18     8    10 1   
    19     8    18 1   
    20    10    11 1   
    21    10    19 1   
    22    10    20 1   
    23    11    21 1   
    24    22    23 1   
    25    22    24 1   
    26    22    30 1   
    27    22    33 1   
    28    23    49 1   
    29    24    25 1   
    30    24    26 1   
    31    24    34 1   
    32    25    35 1   
    33    26    27 1   
    34    26    28 1   
    35    26    36 1   
    36    27    37 1   
    37    28    29 1   
    38    28    38 1   
    39    29    30 1   
    40    29    31 1   
    41    29    39 1   
    42    31    32 1   
    43    31    40 1   
    44    31    41 1   
    45    32    42 1   
    46    43    44 1   
    47    43    45 1   
    48    43    51 1   
    49    43    54 1   
    50    44    70 1   
    51    45    46 1   
    52    45    47 1   
    53    45    55 1   
    54    46    56 1   
    55    47    48 1   
    56    47    49 1   
    57    47    57 1   
    58    48    58 1   
    59    49    50 1   
    60    49    59 1   
    61    50    51 1   
    62    50    52 1   
    63    50    60 1   
    64    52    53 1   
    65    52    61 1   
    66    52    62 1   
    67    53    63 1   
    68    64    65 1   
    69    64    66 1   
    70    64    72 1   
    71    64    75 1   
    72    65    91 1   
    73    66    67 1   
    74    66    68 1   
    75    66    76 1   
    76    67    77 1   
    77    68    69 1   
    78    68    70 1   
    79    68    78 1   
    80    69    79 1   
    81    70    71 1   
    82    70    80 1   
    83    71    72 1   
    84    71    73 1   
    85    71    81 1   
    86    73    74 1   
    87    73    82 1   
    88    73    83 1   
    89    74    84 1   
    90    85    86 1   
    91    85    87 1   
    92    85    93 1   
    93    85    96 1   
    94    86   111 1   
    95    87    88 1   
    96    87    89 1   
    97    87    97 1   
    98    88    98 1   
    99    89    90 1   
   100    89    91 1   
   101    89    99 1   
   102    90   100 1   
   103    91    92 1   
   104    91   101 1   
   105    92    93 1   
   106    92    94 1   
   107    92   102 1   
   108    94    95 1   
   109    94   103 1   
   110    94   104 1   
   111    95   105 1   
   112   106   107 1   
   113   106   108 1   
   114   106   113 1   
   115   106   117 1   
   116   107   133 1   
   117   108   109 1   
   118   108   110 1   
   119   108   118 1   
   120   109   119 1   
   121   110   111 1   
   122   110   116 1   
   123   110   120 1   
   124   111   112 1   
   125   111   122 1   
   126   112   113 1   
   127   112   114 1   
   128   112   123 1   
   129   114   115 1   
   130   114   124 1   
   131   114   125 1   
   132   115   126 1   
   133   116   121 1   
   134   127   128 1   
   135   127   129 1   
   136   127   135 1   
   137   127   138 1   
   138   129   130 1   
   139   129   131 1   
   140   129   139 1   
   141   130   140 1   
   142   131   132 1   
   143   131   133 1   
   144   131   141 1   
   145   132   142 1   
   146   133   134 1   
   147   133   143 1   
   148   134   135 1   
   149   134   136 1   
   150   134   144 1   
   151   136   137 1   
   152   136   145 1   
   153   136   146 1   
   154   137   147 1   
@<TRIPOS>SUBSTRUCTURE
     1 MG0         1 TEMP              0 ****  ****    0 ROOT
