@<TRIPOS>MOLECULE
CB7
  126   147     1     0     0
SMALL
resp


@<TRIPOS>ATOM
      1 N1           1.4300     5.0860    -1.2490 n          1 CB7      -0.187457
      2 N2           1.4670     5.0270     1.2160 n          1 CB7      -0.187457
      3 N3           3.3640     3.9540    -1.2610 n          1 CB7      -0.187457
      4 N4           3.4790     4.0390     1.2000 n          1 CB7      -0.187457
      5 N5           4.8020     1.9820    -1.2650 n          1 CB7      -0.187457
      6 N6           4.9180     2.0610     1.1970 n          1 CB7      -0.187457
      7 N7           5.2770    -0.2070    -1.2530 n          1 CB7      -0.187457
      8 N8           5.2460    -0.1560     1.2120 n          1 CB7      -0.187457
      9 N9           4.6070    -2.5570    -1.2000 n          1 CB7      -0.187457
     10 N10          4.6150    -2.5160     1.2650 n          1 CB7      -0.187457
     11 N11          3.1700    -4.2770    -1.1910 n          1 CB7      -0.187457
     12 N12          3.1020    -4.1680     1.2710 n          1 CB7      -0.187457
     13 N13          0.9240    -5.2460    -1.2110 n          1 CB7      -0.187457
     14 N14          0.8560    -5.1220     1.2500 n          1 CB7      -0.187457
     15 N15         -1.3090    -5.0490    -1.2290 n          1 CB7      -0.187457
     16 N16         -1.3850    -5.1210     1.2340 n          1 CB7      -0.187457
     17 N17         -3.4660    -3.9060    -1.2730 n          1 CB7      -0.187457
     18 N18         -3.5300    -3.9490     1.1910 n          1 CB7      -0.187457
     19 N19         -4.7800    -2.0910    -1.2730 n          1 CB7      -0.187457
     20 N20         -4.8560    -2.1410     1.1900 n          1 CB7      -0.187457
     21 N21         -5.2080     0.3120    -1.2340 n          1 CB7      -0.187457
     22 N22         -5.3080     0.2610     1.2290 n          1 CB7      -0.187457
     23 N23         -4.7060     2.4970    -1.2140 n          1 CB7      -0.187457
     24 N24         -4.6180     2.3940     1.2480 n          1 CB7      -0.187457
     25 N25         -3.0900     4.3330    -1.1910 n          1 CB7      -0.187457
     26 N26         -3.0150     4.2330     1.2710 n          1 CB7      -0.187457
     27 N27         -1.0120     5.1730    -1.1970 n          1 CB7      -0.187457
     28 N28         -0.9720     5.1540     1.2680 n          1 CB7      -0.187457
     29 C1           2.2170     4.2230    -2.0060 c          1 CB7       0.616100
     30 C2           2.3410     4.2520     1.9740 c          1 CB7       0.616100
     31 C3           2.0640     5.4950    -0.0180 c3         1 CB7      -0.046696
     32 H1           2.1630     6.5920     0.0060 h2         1 CB7       0.126287
     33 C4           3.4460     4.7520    -0.0560 c3         1 CB7      -0.046696
     34 H2           4.3050     5.4380    -0.1190 h2         1 CB7       0.126287
     35 C5           4.4870     3.2640    -1.8540 c3         1 CB7       0.030653
     36 H3           4.2290     3.0770    -2.8990 h2         1 CB7       0.084288
     37 H4           5.3770     3.9130    -1.7990 h2         1 CB7       0.084288
     38 C6           4.6430     3.3730     1.7390 c3         1 CB7       0.030653
     39 H5           4.4640     3.2410     2.8080 h2         1 CB7       0.084288
     40 H6           5.5240     4.0140     1.5820 h2         1 CB7       0.084288
     41 C7           4.6990     0.8090    -2.0080 c          1 CB7       0.616100
     42 C8           4.7750     0.9130     1.9710 c          1 CB7       0.616100
     43 C9           5.5860     1.8130    -0.0600 c3         1 CB7      -0.046696
     44 H7           6.5030     2.4200    -0.1220 h2         1 CB7       0.126287
     45 C10          5.8680     0.2690    -0.0250 c3         1 CB7      -0.046696
     46 H8           6.9420     0.0260    -0.0060 h2         1 CB7       0.126287
     47 C11          5.4500    -1.5380    -1.7880 c3         1 CB7       0.030653
     48 H9           6.5040    -1.8330    -1.6720 h2         1 CB7       0.084288
     49 H10          5.1910    -1.4900    -2.8480 h2         1 CB7       0.084288
     50 C12          5.4380    -1.4600     1.8080 c3         1 CB7       0.030653
     51 H11          6.4960    -1.7490     1.7100 h2         1 CB7       0.084288
     52 H12          5.1750    -1.3650     2.8650 h2         1 CB7       0.084288
     53 C13          3.6550    -3.2270    -1.9650 c          1 CB7       0.616100
     54 C14          3.5980    -3.1000     2.0150 c          1 CB7       0.616100
     55 C15          4.9000    -3.2350     0.0450 c3         1 CB7      -0.046696
     56 H13          5.9470    -3.5760     0.0480 h2         1 CB7       0.126287
     57 C16          3.8660    -4.4160     0.0680 c3         1 CB7      -0.046696
     58 H14          4.3430    -5.4070     0.1240 h2         1 CB7       0.126287
     59 C17          2.2680    -5.2630    -1.7430 c3         1 CB7       0.030653
     60 H15          2.6970    -6.2650    -1.5880 h2         1 CB7       0.084288
     61 H16          2.1870    -5.0520    -2.8120 h2         1 CB7       0.084288
     62 C18          2.1710    -5.1100     1.8510 c3         1 CB7       0.030653
     63 H17          2.0390    -4.8220     2.8970 h2         1 CB7       0.084288
     64 H18          2.6030    -6.1220     1.7920 h2         1 CB7       0.084288
     65 C19         -0.1570    -4.8280    -1.9820 c          1 CB7       0.616100
     66 C20         -0.2710    -4.7830     1.9970 c          1 CB7       0.616100
     67 C21          0.5250    -5.8460     0.0400 c3         1 CB7      -0.046696
     68 H19          0.9110    -6.8750     0.1020 h2         1 CB7       0.126287
     69 C22         -1.0420    -5.7770    -0.0060 c3         1 CB7      -0.046696
     70 H20         -1.5180    -6.7690    -0.0490 h2         1 CB7       0.126287
     71 C23         -2.6190    -4.9340    -1.8320 c3         1 CB7       0.030653
     72 H21         -2.4610    -4.6790    -2.8830 h2         1 CB7       0.084288
     73 H22         -3.1370    -5.9040    -1.7560 h2         1 CB7       0.084288
     74 C24         -2.7250    -5.0050     1.7630 c3         1 CB7       0.030653
     75 H23         -3.2440    -5.9660     1.6260 h2         1 CB7       0.084288
     76 H24         -2.6270    -4.7830     2.8280 h2         1 CB7       0.084288
     77 C25         -3.8320    -2.7880    -2.0180 c          1 CB7       0.616100
     78 C26         -3.9550    -2.8700     1.9620 c          1 CB7       0.616100
     79 C27         -4.2430    -4.0550    -0.0640 c3         1 CB7      -0.046696
     80 H25         -4.8070    -5.0010    -0.0950 h2         1 CB7       0.126287
     81 C28         -5.1670    -2.7860    -0.0660 c3         1 CB7      -0.046696
     82 H26         -6.2400    -3.0320    -0.1040 h2         1 CB7       0.126287
     83 C29         -5.4970    -0.9710    -1.8370 c3         1 CB7       0.030653
     84 H27         -5.2020    -0.9000    -2.8860 h2         1 CB7       0.084288
     85 H28         -6.5790    -1.1670    -1.7640 h2         1 CB7       0.084288
     86 C30         -5.6140    -1.0480     1.7580 c3         1 CB7       0.030653
     87 H29         -6.6870    -1.2450     1.6160 h2         1 CB7       0.084288
     88 H30         -5.3780    -1.0220     2.8240 h2         1 CB7       0.084288
     89 C31         -4.6380     1.3390    -1.9840 c          1 CB7       0.616100
     90 C32         -4.6460     1.2170     1.9940 c          1 CB7       0.616100
     91 C33         -5.8220     0.7900    -0.0120 c3         1 CB7      -0.046696
     92 H31         -6.9120     0.6430    -0.0590 h2         1 CB7       0.126287
     93 C34         -5.4040     2.3020     0.0350 c3         1 CB7      -0.046696
     94 H32         -6.2640     2.9870     0.0930 h2         1 CB7       0.126287
     95 C35         -4.3060     3.7800    -1.7450 c3         1 CB7       0.030653
     96 H33         -4.1290     3.6390    -2.8130 h2         1 CB7       0.084288
     97 H34         -5.1260     4.4980    -1.5920 h2         1 CB7       0.084288
     98 C36         -4.2000     3.6410     1.8490 c3         1 CB7       0.030653
     99 H35         -3.9700     3.4260     2.8950 h2         1 CB7       0.084288
    100 H36         -5.0280     4.3650     1.7880 h2         1 CB7       0.084288
    101 C37         -1.9420     4.4750    -1.9650 c          1 CB7       0.616100
    102 C38         -1.8450     4.3690     2.0150 c          1 CB7       0.616100
    103 C39         -3.0100     5.0380     0.0690 c3         1 CB7      -0.046696
    104 H37         -3.8050     5.7980     0.1240 h2         1 CB7       0.126287
    105 C40         -1.5670     5.6550     0.0500 c3         1 CB7      -0.046696
    106 H38         -1.5670     6.7560     0.0580 h2         1 CB7       0.126287
    107 C41          0.2170     5.6630    -1.7820 c3         1 CB7       0.030653
    108 H39          0.1840     5.4060    -2.8440 h2         1 CB7       0.084288
    109 H40          0.2620     6.7560    -1.6610 h2         1 CB7       0.084288
    110 C42          0.2850     5.6090     1.8150 c3         1 CB7       0.030653
    111 H41          0.3380     6.7050     1.7220 h2         1 CB7       0.084288
    112 H42          0.2950     5.3240     2.8690 h2         1 CB7       0.084288
    113 O1           2.1680     3.8780     3.1150 o          1 CB7      -0.520006
    114 O2           1.9760     3.8250    -3.1260 o          1 CB7      -0.520006
    115 O3           4.2420     0.7030    -3.1270 o          1 CB7      -0.520006
    116 O4           4.3700     0.8620     3.1130 o          1 CB7      -0.520006
    117 O5          -1.6460     3.9320     3.1290 o          1 CB7      -0.520006
    118 O6           3.3470    -2.9760    -3.1110 o          1 CB7      -0.520006
    119 O7           3.2480    -2.7750     3.1300 o          1 CB7      -0.520006
    120 O8          -0.1090    -4.4040    -3.1180 o          1 CB7      -0.520006
    121 O9          -0.2800    -4.3310     3.1220 o          1 CB7      -0.520006
    122 O10         -3.4410    -2.5050    -3.1310 o          1 CB7      -0.520006
    123 O11         -3.6400    -2.6390     3.1110 o          1 CB7      -0.520006
    124 O12         -4.2140     1.2530    -3.1180 o          1 CB7      -0.520006
    125 O13         -4.2220     1.0690     3.1210 o          1 CB7      -0.520006
    126 O14         -1.7980     4.1080    -3.1120 o          1 CB7      -0.520006
@<TRIPOS>BOND
     1     1    29 1   
     2     1    31 1   
     3     1   107 1   
     4     2    30 1   
     5     2    31 1   
     6     2   110 1   
     7     3    29 1   
     8     3    33 1   
     9     3    35 1   
    10     4    30 1   
    11     4    33 1   
    12     4    38 1   
    13     5    35 1   
    14     5    41 1   
    15     5    43 1   
    16     6    38 1   
    17     6    42 1   
    18     6    43 1   
    19     7    41 1   
    20     7    45 1   
    21     7    47 1   
    22     8    42 1   
    23     8    45 1   
    24     8    50 1   
    25     9    47 1   
    26     9    53 1   
    27     9    55 1   
    28    10    50 1   
    29    10    54 1   
    30    10    55 1   
    31    11    53 1   
    32    11    57 1   
    33    11    59 1   
    34    12    54 1   
    35    12    57 1   
    36    12    62 1   
    37    13    59 1   
    38    13    65 1   
    39    13    67 1   
    40    14    62 1   
    41    14    66 1   
    42    14    67 1   
    43    15    65 1   
    44    15    69 1   
    45    15    71 1   
    46    16    66 1   
    47    16    69 1   
    48    16    74 1   
    49    17    71 1   
    50    17    77 1   
    51    17    79 1   
    52    18    74 1   
    53    18    78 1   
    54    18    79 1   
    55    19    77 1   
    56    19    81 1   
    57    19    83 1   
    58    20    78 1   
    59    20    81 1   
    60    20    86 1   
    61    21    83 1   
    62    21    89 1   
    63    21    91 1   
    64    22    86 1   
    65    22    90 1   
    66    22    91 1   
    67    23    89 1   
    68    23    93 1   
    69    23    95 1   
    70    24    90 1   
    71    24    93 1   
    72    24    98 1   
    73    25    95 1   
    74    25   101 1   
    75    25   103 1   
    76    26    98 1   
    77    26   102 1   
    78    26   103 1   
    79    27   101 1   
    80    27   105 1   
    81    27   107 1   
    82    28   102 1   
    83    28   105 1   
    84    28   110 1   
    85    29   114 2   
    86    30   113 2   
    87    31    32 1   
    88    31    33 1   
    89    33    34 1   
    90    35    36 1   
    91    35    37 1   
    92    38    39 1   
    93    38    40 1   
    94    41   115 2   
    95    42   116 2   
    96    43    44 1   
    97    43    45 1   
    98    45    46 1   
    99    47    48 1   
   100    47    49 1   
   101    50    51 1   
   102    50    52 1   
   103    53   118 2   
   104    54   119 2   
   105    55    56 1   
   106    55    57 1   
   107    57    58 1   
   108    59    60 1   
   109    59    61 1   
   110    62    63 1   
   111    62    64 1   
   112    65   120 2   
   113    66   121 2   
   114    67    68 1   
   115    67    69 1   
   116    69    70 1   
   117    71    72 1   
   118    71    73 1   
   119    74    75 1   
   120    74    76 1   
   121    77   122 2   
   122    78   123 2   
   123    79    80 1   
   124    79    81 1   
   125    81    82 1   
   126    83    84 1   
   127    83    85 1   
   128    86    87 1   
   129    86    88 1   
   130    89   124 2   
   131    90   125 2   
   132    91    92 1   
   133    91    93 1   
   134    93    94 1   
   135    95    96 1   
   136    95    97 1   
   137    98    99 1   
   138    98   100 1   
   139   101   126 2   
   140   102   117 2   
   141   103   104 1   
   142   103   105 1   
   143   105   106 1   
   144   107   108 1   
   145   107   109 1   
   146   110   111 1   
   147   110   112 1   
@<TRIPOS>SUBSTRUCTURE
     1 CB7         1 TEMP              0 ****  ****    0 ROOT
