@<TRIPOS>MOLECULE
M99
  189   196     1     0     0
SMALL
resp


@<TRIPOS>ATOM
      1 C1          -6.1940     1.0620    -0.1590 c3         1 M99       0.093929
      2 C2          -6.2200     1.9330    -1.4250 c3         1 M99       0.178620
      3 C3          -4.8860     2.6930    -1.5320 c3         1 M99       0.088842
      4 C4          -4.6210     3.4900    -0.2400 c3         1 M99       0.075263
      5 C5          -4.7490     2.5890     1.0090 c3         1 M99       0.063919
      6 C6          -4.7280     3.3900     2.3090 c3         1 M99       0.068497
      7 C7          -4.5630    -4.0320     0.0630 c3         1 M99       0.093929
      8 C8          -5.4150    -3.5870    -1.1400 c3         1 M99       0.178620
      9 C9          -5.2200    -2.0770    -1.3690 c3         1 M99       0.088842
     10 C10         -5.5000    -1.2930    -0.0710 c3         1 M99       0.075263
     11 C11         -4.6160    -1.8530     1.0620 c3         1 M99       0.063919
     12 C12         -4.8750    -1.2200     2.4170 c3         1 M99       0.068497
     13 C13          0.3170    -6.1370    -0.1250 c3         1 M99       0.093929
     14 C14         -0.5810    -6.4080    -1.3460 c3         1 M99       0.178620
     15 C15         -1.6080    -5.2700    -1.4930 c3         1 M99       0.088842
     16 C16         -2.3590    -5.0730    -0.1660 c3         1 M99       0.075263
     17 C17         -1.3680    -4.8590     0.9930 c3         1 M99       0.063919
     18 C18         -2.0440    -4.7450     2.3500 c3         1 M99       0.068497
     19 C19          5.0160    -3.5940    -0.2610 c3         1 M99       0.093929
     20 C20          4.6580    -4.4110    -1.5140 c3         1 M99       0.178620
     21 C21          3.1260    -4.5310    -1.6140 c3         1 M99       0.088842
     22 C22          2.5370    -5.0900    -0.3040 c3         1 M99       0.075263
     23 C23          3.0340    -4.2700     0.9060 c3         1 M99       0.063919
     24 C24          2.6460    -4.8860     2.2400 c3         1 M99       0.068497
     25 C25          5.8160     1.6700    -0.0510 c3         1 M99       0.093929
     26 C26          6.3050     0.9380    -1.3140 c3         1 M99       0.178620
     27 C27          5.4460    -0.3200    -1.5350 c3         1 M99       0.088842
     28 C28          5.4640    -1.1840    -0.2650 c3         1 M99       0.075263
     29 C29          5.0310    -0.3600     0.9620 c3         1 M99       0.063919
     30 C30          5.1520    -1.1310     2.2680 c3         1 M99       0.068497
     31 C31          2.2440     5.6320     0.0380 c3         1 M99       0.093929
     32 C32          3.1620     5.5580    -1.1950 c3         1 M99       0.178620
     33 C33          3.6070     4.1010    -1.4140 c3         1 M99       0.088842
     34 C34          4.2500     3.5590    -0.1280 c3         1 M99       0.075263
     35 C35          3.3040     3.7440     1.0750 c3         1 M99       0.063919
     36 C36          3.9560     3.3600     2.3950 c3         1 M99       0.068497
     37 C37         -3.0800     5.4030    -0.0910 c3         1 M99       0.093929
     38 C38         -2.3940     6.0000    -1.3330 c3         1 M99       0.178620
     39 C39         -0.9790     5.4140    -1.4710 c3         1 M99       0.088842
     40 C40         -0.2020     5.6250    -0.1620 c3         1 M99       0.075263
     41 C41         -0.9930     5.0710     1.0400 c3         1 M99       0.063919
     42 C42         -0.3320     5.3870     2.3730 c3         1 M99       0.068497
     43 O1          -6.5430     1.1920    -2.5740 oh         1 M99      -0.638858
     44 O2          -4.7700     3.5240    -2.6870 os         1 M99      -0.376733
     45 C43         -5.9230     4.2650    -3.0840 c3         1 M99      -0.029637
     46 O3          -3.2970     4.0200    -0.3240 os         1 M99      -0.357904
     47 O4          -5.9880     1.8600     0.9870 os         1 M99      -0.406986
     48 O5          -4.7310     2.5630     3.4630 os         1 M99      -0.341796
     49 C44         -6.0060     2.4070     4.0680 c3         1 M99       0.027997
     50 O6          -5.1460    -4.3620    -2.2830 oh         1 M99      -0.638858
     51 O7          -5.9520    -1.5450    -2.4720 os         1 M99      -0.376733
     52 C45         -7.2920    -1.9950    -2.6570 c3         1 M99      -0.029637
     53 O8          -5.1870     0.0810    -0.3120 os         1 M99      -0.357904
     54 O9          -4.8580    -3.2600     1.2050 os         1 M99      -0.406986
     55 O10         -3.8360    -1.6120     3.2960 os         1 M99      -0.341796
     56 C46         -3.8750    -0.9180     4.5290 c3         1 M99       0.027997
     57 O11          0.1810    -6.6360    -2.5070 oh         1 M99      -0.638858
     58 O12         -2.5150    -5.4260    -2.5860 os         1 M99      -0.376733
     59 C47         -3.0170    -6.7360    -2.8440 c3         1 M99      -0.029637
     60 O13         -3.2020    -3.9280    -0.3100 os         1 M99      -0.357904
     61 O14         -0.4410    -5.9590     1.0480 os         1 M99      -0.406986
     62 O15         -2.9910    -5.7870     2.5070 os         1 M99      -0.341796
     63 C48         -3.7540    -5.6370     3.6900 c3         1 M99       0.027997
     64 O16          5.2540    -3.8820    -2.6730 oh         1 M99      -0.638858
     65 O17          2.6580    -5.2680    -2.7440 os         1 M99      -0.376733
     66 C49          3.3780    -6.4440    -3.1080 c3         1 M99      -0.029637
     67 O18          1.1150    -5.0010    -0.4110 os         1 M99      -0.357904
     68 O19          4.4650    -4.1810     0.8960 os         1 M99      -0.406986
     69 O20          2.9040    -3.9430     3.2670 os         1 M99      -0.341796
     70 C50          2.5300    -4.4180     4.5430 c3         1 M99       0.027997
     71 O21          6.3460     1.7960    -2.4290 oh         1 M99      -0.638858
     72 O22          5.7920    -1.0860    -2.6910 os         1 M99      -0.376733
     73 C51          7.1780    -1.2590    -2.9740 c3         1 M99      -0.029637
     74 O23          4.5560    -2.2720    -0.4600 os         1 M99      -0.357904
     75 O24          5.8370     0.8250     1.0770 os         1 M99      -0.406986
     76 O25          6.4240    -1.7480     2.3440 os         1 M99      -0.341796
     77 C52          6.5300    -2.6180     3.4560 c3         1 M99       0.027997
     78 O26          2.5560     6.1350    -2.3260 oh         1 M99      -0.638858
     79 O27          4.4540     3.9020    -2.5470 os         1 M99      -0.376733
     80 C53          5.4660     4.8770    -2.7900 c3         1 M99      -0.029637
     81 O28          4.5130     2.1670    -0.3160 os         1 M99      -0.357904
     82 O29          2.8750     5.1100     1.1840 os         1 M99      -0.406986
     83 O30          5.2000     4.0210     2.5210 os         1 M99      -0.341796
     84 C54          5.9340     3.5840     3.6480 c3         1 M99       0.027997
     85 O31         -3.1860     5.8450    -2.4860 oh         1 M99      -0.638858
     86 O32         -0.2480     5.8970    -2.6000 os         1 M99      -0.376733
     87 C55         -0.3650     7.2840    -2.9140 c3         1 M99      -0.029637
     88 O33          1.0450     4.9350    -0.2670 os         1 M99      -0.357904
     89 O34         -2.3220     5.6210     1.0730 os         1 M99      -0.406986
     90 O35         -0.0330     6.7680     2.4410 os         1 M99      -0.341796
     91 C56          0.7030     7.1060     3.6000 c3         1 M99       0.027997
     92 H1          -5.8560    -1.5540     2.7980 h1         1 M99       0.064814
     93 H2          -4.9020    -0.1270     2.3150 h1         1 M99       0.064814
     94 H3          -6.0420     0.3480    -2.5620 ho         1 M99       0.436896
     95 H4          -5.5860     4.9310    -3.8810 h1         1 M99       0.075887
     96 H5          -6.3270     4.8830    -2.2700 h1         1 M99       0.075887
     97 H6          -6.7010     3.5980    -3.4670 h1         1 M99       0.075887
     98 H7          -5.8580     1.7840     4.9540 h1         1 M99       0.052236
     99 H8          -6.7230     1.9190     3.3970 h1         1 M99       0.052236
    100 H9          -6.4170     3.3780     4.3860 h1         1 M99       0.052236
    101 H10         -4.1720    -4.4240    -2.3950 ho         1 M99       0.436896
    102 H11         -7.7170    -1.3510    -3.4300 h1         1 M99       0.075887
    103 H12         -7.9010    -1.8910    -1.7480 h1         1 M99       0.075887
    104 H13         -7.3090    -3.0360    -2.9940 h1         1 M99       0.075887
    105 H14         -3.0230    -1.2670     5.1190 h1         1 M99       0.052236
    106 H15         -4.8020    -1.1310     5.0860 h1         1 M99       0.052236
    107 H16         -3.7960     0.1680     4.3790 h1         1 M99       0.052236
    108 H17          0.8460    -5.9190    -2.5910 ho         1 M99       0.436896
    109 H18         -3.7920    -6.6130    -3.6030 h1         1 M99       0.075887
    110 H19         -3.4750    -7.1940    -1.9560 h1         1 M99       0.075887
    111 H20         -2.2260    -7.3870    -3.2310 h1         1 M99       0.075887
    112 H21         -4.4840    -6.4500     3.7060 h1         1 M99       0.052236
    113 H22         -4.2770    -4.6710     3.7040 h1         1 M99       0.052236
    114 H23         -3.1210    -5.7110     4.5890 h1         1 M99       0.052236
    115 H24          5.1280    -2.9080    -2.6740 ho         1 M99       0.436896
    116 H25          2.7820    -6.9280    -3.8840 h1         1 M99       0.075887
    117 H26          3.4880    -7.1460    -2.2700 h1         1 M99       0.075887
    118 H27          4.3640    -6.1880    -3.5090 h1         1 M99       0.075887
    119 H28          2.7580    -3.6260     5.2610 h1         1 M99       0.052236
    120 H29          3.0890    -5.3260     4.8220 h1         1 M99       0.052236
    121 H30          1.4530    -4.6470     4.5920 h1         1 M99       0.052236
    122 H31          5.4920     2.2770    -2.4850 ho         1 M99       0.436896
    123 H32          7.2270    -1.9900    -3.7830 h1         1 M99       0.075887
    124 H33          7.7370    -1.6570    -2.1160 h1         1 M99       0.075887
    125 H34          7.6290    -0.3160    -3.3030 h1         1 M99       0.075887
    126 H35          7.5190    -3.0830     3.4050 h1         1 M99       0.052236
    127 H36          5.7540    -3.3950     3.4260 h1         1 M99       0.052236
    128 H37          6.4470    -2.0670     4.4070 h1         1 M99       0.052236
    129 H38          1.6610     5.7450    -2.4330 ho         1 M99       0.436896
    130 H39          6.0870     4.4670    -3.5890 h1         1 M99       0.075887
    131 H40          6.1040     5.0490    -1.9120 h1         1 M99       0.075887
    132 H41          5.0240     5.8240    -3.1180 h1         1 M99       0.075887
    133 H42          6.8680     4.1520     3.6620 h1         1 M99       0.052236
    134 H43          6.1650     2.5100     3.5820 h1         1 M99       0.052236
    135 H44          5.3890     3.7740     4.5860 h1         1 M99       0.052236
    136 H45         -3.4510     4.9030    -2.5590 ho         1 M99       0.436896
    137 H46          0.3710     7.4740    -3.6970 h1         1 M99       0.075887
    138 H47         -0.1300     7.9310    -2.0570 h1         1 M99       0.075887
    139 H48         -1.3670     7.5150    -3.2890 h1         1 M99       0.075887
    140 H49          0.8790     8.1840     3.5650 h1         1 M99       0.052236
    141 H50          1.6700     6.5830     3.6270 h1         1 M99       0.052236
    142 H51          0.1440     6.8660     4.5190 h1         1 M99       0.052236
    143 H52         -7.1700     0.5870    -0.0130 h2         1 M99       0.158322
    144 H53         -7.0350     2.6540    -1.2830 h1         1 M99       0.102636
    145 H54         -4.0780     1.9630    -1.6450 h1         1 M99       0.112463
    146 H55         -5.3460     4.3140    -0.1640 h1         1 M99       0.110858
    147 H56         -3.9100     1.8810     1.0100 h1         1 M99       0.119675
    148 H57         -3.8120     3.9890     2.3340 h1         1 M99       0.064814
    149 H58         -5.5870     4.0790     2.3250 h1         1 M99       0.064814
    150 H59         -4.8030    -5.0620     0.3380 h2         1 M99       0.158322
    151 H60         -6.4600    -3.7800    -0.8740 h1         1 M99       0.102636
    152 H61         -4.1730    -1.9000    -1.6370 h1         1 M99       0.112463
    153 H62         -6.5570    -1.3890     0.2150 h1         1 M99       0.110858
    154 H63         -3.5640    -1.6830     0.7990 h1         1 M99       0.119675
    155 H64          0.9540    -7.0080     0.0620 h2         1 M99       0.158322
    156 H65         -1.1110    -7.3440    -1.1370 h1         1 M99       0.102636
    157 H66         -1.0720    -4.3430    -1.7220 h1         1 M99       0.112463
    158 H67         -2.9660    -5.9570     0.0600 h1         1 M99       0.110858
    159 H68         -0.8110    -3.9290     0.8140 h1         1 M99       0.119675
    160 H69         -2.5350    -3.7660     2.4310 h1         1 M99       0.064814
    161 H70         -1.2690    -4.8040     3.1330 h1         1 M99       0.064814
    162 H71          6.0980    -3.6000    -0.1010 h2         1 M99       0.158322
    163 H72          5.0910    -5.4080    -1.3700 h1         1 M99       0.102636
    164 H73          2.7120    -3.5280    -1.7590 h1         1 M99       0.112463
    165 H74          2.8370    -6.1410    -0.1800 h1         1 M99       0.110858
    166 H75          2.5970    -3.2660     0.8400 h1         1 M99       0.119675
    167 H76          1.5820    -5.1590     2.2260 h1         1 M99       0.064814
    168 H77          3.2370    -5.8040     2.4010 h1         1 M99       0.064814
    169 H78          6.4910     2.4960     0.1900 h2         1 M99       0.158322
    170 H79          7.3410     0.6380    -1.1190 h1         1 M99       0.102636
    171 H80          4.4130    -0.0090    -1.7220 h1         1 M99       0.112463
    172 H81          6.4720    -1.5700    -0.0800 h1         1 M99       0.110858
    173 H82          3.9790    -0.0710     0.8340 h1         1 M99       0.119675
    174 H83          5.0110    -0.4280     3.1060 h1         1 M99       0.064814
    175 H84          4.3570    -1.8860     2.3220 h1         1 M99       0.064814
    176 H85          2.0200     6.6750     0.2780 h2         1 M99       0.158322
    177 H86          4.0400     6.1750    -0.9690 h1         1 M99       0.102636
    178 H87          2.7220     3.4950    -1.6340 h1         1 M99       0.112463
    179 H88          5.1840     4.0920     0.0820 h1         1 M99       0.110858
    180 H89          2.4270     3.0980     0.9270 h1         1 M99       0.119675
    181 H90          3.2820     3.6370     3.2220 h1         1 M99       0.064814
    182 H91          4.0980     2.2710     2.4140 h1         1 M99       0.064814
    183 H92         -4.0360     5.9100     0.0790 h2         1 M99       0.158322
    184 H93         -2.3210     7.0790    -1.1550 h1         1 M99       0.102636
    185 H94         -1.0610     4.3360    -1.6490 h1         1 M99       0.112463
    186 H95         -0.0260     6.6930     0.0030 h1         1 M99       0.110858
    187 H96         -1.0560     3.9780     0.9420 h1         1 M99       0.119675
    188 H97          0.5880     4.7920     2.4590 h1         1 M99       0.064814
    189 H98         -1.0130     5.0940     3.1890 h1         1 M99       0.064814
@<TRIPOS>BOND
     1     1     2 1   
     2     1    47 1   
     3     1    53 1   
     4     1   143 1   
     5     2     3 1   
     6     2    43 1   
     7     2   144 1   
     8     3     4 1   
     9     3    44 1   
    10     3   145 1   
    11     4     5 1   
    12     4    46 1   
    13     4   146 1   
    14     5     6 1   
    15     5    47 1   
    16     5   147 1   
    17     6    48 1   
    18     6   148 1   
    19     6   149 1   
    20     7     8 1   
    21     7    54 1   
    22     7    60 1   
    23     7   150 1   
    24     8     9 1   
    25     8    50 1   
    26     8   151 1   
    27     9    10 1   
    28     9    51 1   
    29     9   152 1   
    30    10    11 1   
    31    10    53 1   
    32    10   153 1   
    33    11    12 1   
    34    11    54 1   
    35    11   154 1   
    36    12    55 1   
    37    12    92 1   
    38    12    93 1   
    39    13    14 1   
    40    13    61 1   
    41    13    67 1   
    42    13   155 1   
    43    14    15 1   
    44    14    57 1   
    45    14   156 1   
    46    15    16 1   
    47    15    58 1   
    48    15   157 1   
    49    16    17 1   
    50    16    60 1   
    51    16   158 1   
    52    17    18 1   
    53    17    61 1   
    54    17   159 1   
    55    18    62 1   
    56    18   160 1   
    57    18   161 1   
    58    19    20 1   
    59    19    68 1   
    60    19    74 1   
    61    19   162 1   
    62    20    21 1   
    63    20    64 1   
    64    20   163 1   
    65    21    22 1   
    66    21    65 1   
    67    21   164 1   
    68    22    23 1   
    69    22    67 1   
    70    22   165 1   
    71    23    24 1   
    72    23    68 1   
    73    23   166 1   
    74    24    69 1   
    75    24   167 1   
    76    24   168 1   
    77    25    26 1   
    78    25    75 1   
    79    25    81 1   
    80    25   169 1   
    81    26    27 1   
    82    26    71 1   
    83    26   170 1   
    84    27    28 1   
    85    27    72 1   
    86    27   171 1   
    87    28    29 1   
    88    28    74 1   
    89    28   172 1   
    90    29    30 1   
    91    29    75 1   
    92    29   173 1   
    93    30    76 1   
    94    30   174 1   
    95    30   175 1   
    96    31    32 1   
    97    31    82 1   
    98    31    88 1   
    99    31   176 1   
   100    32    33 1   
   101    32    78 1   
   102    32   177 1   
   103    33    34 1   
   104    33    79 1   
   105    33   178 1   
   106    34    35 1   
   107    34    81 1   
   108    34   179 1   
   109    35    36 1   
   110    35    82 1   
   111    35   180 1   
   112    36    83 1   
   113    36   181 1   
   114    36   182 1   
   115    37    38 1   
   116    37    46 1   
   117    37    89 1   
   118    37   183 1   
   119    38    39 1   
   120    38    85 1   
   121    38   184 1   
   122    39    40 1   
   123    39    86 1   
   124    39   185 1   
   125    40    41 1   
   126    40    88 1   
   127    40   186 1   
   128    41    42 1   
   129    41    89 1   
   130    41   187 1   
   131    42    90 1   
   132    42   188 1   
   133    42   189 1   
   134    43    94 1   
   135    44    45 1   
   136    45    95 1   
   137    45    96 1   
   138    45    97 1   
   139    48    49 1   
   140    49    98 1   
   141    49    99 1   
   142    49   100 1   
   143    50   101 1   
   144    51    52 1   
   145    52   102 1   
   146    52   103 1   
   147    52   104 1   
   148    55    56 1   
   149    56   105 1   
   150    56   106 1   
   151    56   107 1   
   152    57   108 1   
   153    58    59 1   
   154    59   109 1   
   155    59   110 1   
   156    59   111 1   
   157    62    63 1   
   158    63   112 1   
   159    63   113 1   
   160    63   114 1   
   161    64   115 1   
   162    65    66 1   
   163    66   116 1   
   164    66   117 1   
   165    66   118 1   
   166    69    70 1   
   167    70   119 1   
   168    70   120 1   
   169    70   121 1   
   170    71   122 1   
   171    72    73 1   
   172    73   123 1   
   173    73   124 1   
   174    73   125 1   
   175    76    77 1   
   176    77   126 1   
   177    77   127 1   
   178    77   128 1   
   179    78   129 1   
   180    79    80 1   
   181    80   130 1   
   182    80   131 1   
   183    80   132 1   
   184    83    84 1   
   185    84   133 1   
   186    84   134 1   
   187    84   135 1   
   188    85   136 1   
   189    86    87 1   
   190    87   137 1   
   191    87   138 1   
   192    87   139 1   
   193    90    91 1   
   194    91   140 1   
   195    91   141 1   
   196    91   142 1   
@<TRIPOS>SUBSTRUCTURE
     1 M99         1 TEMP              0 ****  ****    0 ROOT
