@<TRIPOS>MOLECULE
OA0
  184   204     1     0     0
SMALL
resp


@<TRIPOS>ATOM
      1 C1          -2.9300     1.4650     3.2460 ca         1 OA0      -0.086273
      2 C2          -3.9130    -0.8750     2.0170 ca         1 OA0       0.184165
      3 C3          -2.7420     0.1870     3.8070 ca         1 OA0      -0.261638
      4 C4          -3.6390     1.5180     2.0320 ca         1 OA0       0.184165
      5 C5          -4.1430     0.3670     1.4420 ca         1 OA0      -0.198332
      6 C6          -3.2000    -1.0070     3.2200 ca         1 OA0      -0.086273
      7 O1          -4.3890    -1.9750     1.3030 os         1 OA0      -0.403703
      8 C7          -2.9200    -2.4100     3.7910 c3         1 OA0       0.237409
      9 C8          -3.4050    -2.6380     0.5350 c3         1 OA0       0.478915
     10 O2          -2.9150    -3.7850     1.2020 os         1 OA0      -0.403703
     11 C9          -1.7090    -3.5890     1.8790 ca         1 OA0       0.184165
     12 C10         -1.6380    -2.9600     3.1340 ca         1 OA0      -0.086273
     13 C11         -0.3470    -2.8050     3.6760 ca         1 OA0      -0.261638
     14 C12         -0.5660    -4.0170     1.2160 ca         1 OA0      -0.198332
     15 C13          0.8380    -3.2050     3.0300 ca         1 OA0      -0.086273
     16 C14          0.6910    -3.8070     1.7670 ca         1 OA0       0.184165
     17 O3           1.7730    -4.2150     0.9780 os         1 OA0      -0.403703
     18 C15          2.2460    -2.9930     3.6200 c3         1 OA0       0.237409
     19 C16          2.8190    -1.6570     3.1100 ca         1 OA0      -0.086273
     20 C17          3.4830    -1.6510     1.8720 ca         1 OA0       0.184165
     21 C18          2.4880    -3.1590     0.3590 c3         1 OA0       0.478915
     22 O4           3.6370    -2.8130     1.1130 os         1 OA0      -0.403703
     23 O5          -3.8500     2.7050     1.3200 os         1 OA0      -0.403703
     24 C19         -2.3760     2.7620     3.8630 c3         1 OA0       0.237409
     25 C20         -0.9790     3.0370     3.2780 ca         1 OA0      -0.086273
     26 O6          -2.0320     4.1720     1.3840 os         1 OA0      -0.403703
     27 C21         -0.8940     3.7160     2.0520 ca         1 OA0       0.184165
     28 C22          3.9640    -0.4790     1.3070 ca         1 OA0      -0.198332
     29 C23          3.7480     0.7340     1.9460 ca         1 OA0       0.184165
     30 C24          0.3220     3.9290     1.4170 ca         1 OA0      -0.198332
     31 C25          1.4960     3.4360     1.9730 ca         1 OA0       0.184165
     32 O7           4.1680     1.8750     1.2600 os         1 OA0      -0.403703
     33 O8           2.6550     3.6530     1.2200 os         1 OA0      -0.403703
     34 C26          3.1380     2.5160     0.5260 c3         1 OA0       0.478915
     35 C27          0.2360     2.5870     3.8280 ca         1 OA0      -0.261638
     36 C28          1.4900     2.7520     3.2050 ca         1 OA0      -0.086273
     37 C29          2.6580    -0.4080     3.7430 ca         1 OA0      -0.261638
     38 C30          2.8140     2.2070     3.7760 c3         1 OA0       0.237409
     39 C31          3.0890     0.8110     3.1840 ca         1 OA0      -0.086273
     40 C32         -2.7050     3.1770     0.6320 c3         1 OA0       0.478915
     41 C33          2.3680    -3.2620     5.1410 c3         1 OA0       0.052137
     42 C34          3.8130    -3.5020     5.6230 c3         1 OA0      -0.063792
     43 C35          3.9890    -4.5650     6.7860 c          1 OA0       0.844584
     44 O9           2.9930    -5.2810     7.0640 o          1 OA0      -0.840422
     45 C36         -2.9540    -2.4690     5.3350 c3         1 OA0       0.052137
     46 C37         -3.0950    -3.8900     5.9150 c3         1 OA0      -0.063792
     47 C38         -4.5620    -4.4640     5.9850 c          1 OA0       0.844584
     48 O10         -4.6830    -5.5200     6.6630 o          1 OA0      -0.840422
     49 C39         -2.5240     2.8680     5.4030 c3         1 OA0       0.052137
     50 C40         -2.4300     4.3080     5.9470 c3         1 OA0      -0.063792
     51 C41         -3.3770     4.6490     7.1720 c          1 OA0       0.844584
     52 O11         -3.1580     5.7750     7.6970 o          1 OA0      -0.840422
     53 C42          2.9800     2.3510     5.3100 c3         1 OA0       0.052137
     54 C43          4.4370     2.2120     5.7980 c3         1 OA0      -0.063792
     55 C44          4.8710     3.1890     6.9680 c          1 OA0       0.844584
     56 O12          4.0990     4.1470     7.2320 o          1 OA0      -0.840422
     57 C45         -3.9680    -3.0140    -0.8330 ca         1 OA0       0.223466
     58 C46         -4.7990    -3.5280    -3.4490 ca         1 OA0      -0.618238
     59 C47         -3.4060    -4.0840    -1.5420 ca         1 OA0      -0.559654
     60 C48         -4.9550    -2.2100    -1.4180 ca         1 OA0      -0.559654
     61 C49         -5.3680    -2.4770    -2.7260 ca         1 OA0       0.598651
     62 C50         -3.8300    -4.3370    -2.8490 ca         1 OA0       0.598651
     63 C51         -3.0720     3.7150    -0.7490 ca         1 OA0       0.223466
     64 C52         -3.4400     4.4740    -3.4100 ca         1 OA0      -0.618238
     65 C53         -2.3510     4.7940    -1.2690 ca         1 OA0      -0.559654
     66 C54         -4.0000     3.0220    -1.5470 ca         1 OA0      -0.559654
     67 C55         -4.1700     3.3990    -2.8810 ca         1 OA0       0.598651
     68 C56         -2.5490     5.1710    -2.6010 ca         1 OA0       0.598651
     69 C57          3.6320     2.8860    -0.8730 ca         1 OA0       0.223466
     70 C58          4.2980     3.2770    -3.5500 ca         1 OA0      -0.618238
     71 C59          4.7050     2.1800    -1.4290 ca         1 OA0      -0.559654
     72 C60          2.9000     3.8090    -1.6420 ca         1 OA0      -0.559654
     73 C61          3.2330     3.9910    -2.9870 ca         1 OA0       0.598651
     74 C62          5.0390     2.3930    -2.7720 ca         1 OA0       0.598651
     75 C63          2.8740    -3.5200    -1.0750 ca         1 OA0       0.223466
     76 C64          3.4040    -3.8340    -3.7940 ca         1 OA0      -0.618238
     77 C65          4.0880    -3.0610    -1.6010 ca         1 OA0      -0.559654
     78 C66          1.9290    -4.1590    -1.8980 ca         1 OA0      -0.559654
     79 C67          2.1950    -4.2980    -3.2620 ca         1 OA0       0.598651
     80 C68          4.3490    -3.2350    -2.9650 ca         1 OA0       0.598651
     81 O13         -4.9990     2.7980    -3.7990 os         1 OA0      -0.424355
     82 O14          2.5960     4.8150    -3.8860 os         1 OA0      -0.424355
     83 O15          6.1830     1.8980    -3.3660 os         1 OA0      -0.424355
     84 O16         -6.4280    -1.8390    -3.3400 os         1 OA0      -0.424355
     85 O17         -3.4410    -5.4390    -3.5810 os         1 OA0      -0.424355
     86 O18          5.5770    -2.9920    -3.5470 os         1 OA0      -0.424355
     87 O19          1.3440    -4.8290    -4.2050 os         1 OA0      -0.424355
     88 C69          1.6530     5.8090    -3.6080 ca         1 OA0       0.418354
     89 C70         -0.2430     7.8320    -3.5670 ca         1 OA0      -0.422147
     90 C71          0.3240     5.4770    -3.3020 ca         1 OA0      -0.455973
     91 C72          2.0330     7.1220    -3.8840 ca         1 OA0      -0.422147
     92 C73          1.0800     8.1500    -3.8780 ca         1 OA0       0.116489
     93 C74         -0.6180     6.5130    -3.2890 ca         1 OA0       0.418354
     94 O20         -1.9850     6.3200    -3.1280 os         1 OA0      -0.424355
     95 C75         -6.6480    -0.4650    -3.3540 ca         1 OA0       0.418354
     96 C76         -7.3010     2.2120    -3.7500 ca         1 OA0      -0.422147
     97 C77         -7.9780    -0.0880    -3.5620 ca         1 OA0      -0.422147
     98 C78         -5.6210     0.4880    -3.3390 ca         1 OA0      -0.455973
     99 C79         -5.9760     1.8300    -3.5440 ca         1 OA0       0.418354
    100 C80         -8.3190     1.2490    -3.7750 ca         1 OA0       0.116489
    101 C81          6.5960     0.5720    -3.4340 ca         1 OA0       0.418354
    102 C82          7.6400    -1.9590    -3.8980 ca         1 OA0      -0.422147
    103 C83          7.9340     0.4220    -3.8100 ca         1 OA0      -0.422147
    104 C84          5.7500    -0.5380    -3.2780 ca         1 OA0      -0.455973
    105 C85          6.3030    -1.8060    -3.5220 ca         1 OA0       0.418354
    106 C86          8.4680    -0.8450    -4.0570 ca         1 OA0       0.116489
    107 C87          9.9390    -1.0080    -4.5510 c          1 OA0       0.818493
    108 O21         10.5900     0.0610    -4.6900 o          1 OA0      -0.810634
    109 C88         -0.6740    -9.3070    -4.7840 c          1 OA0       0.818493
    110 O22         -1.7630    -9.9380    -4.8260 o          1 OA0      -0.810634
    111 C89         -9.7870     1.6480    -4.1180 c          1 OA0       0.818493
    112 O23         -9.9790     2.8720    -4.3400 o          1 OA0      -0.810634
    113 O24          5.1460    -4.6020     7.2830 o          1 OA0      -0.840422
    114 O25          5.9880     2.9160     7.4840 o          1 OA0      -0.840422
    115 O26         -4.2610     3.8050     7.4690 o          1 OA0      -0.840422
    116 C90          1.4690     9.6040    -4.2860 c          1 OA0       0.818493
    117 O27          0.5280    10.4400    -4.2810 o          1 OA0      -0.810634
    118 O28          0.4800    -9.7020    -5.0910 o          1 OA0      -0.810634
    119 O29         10.3110    -2.1900    -4.7740 o          1 OA0      -0.810634
    120 O30          2.6770     9.7770    -4.5960 o          1 OA0      -0.810634
    121 O31        -10.6120     0.6980    -4.1590 o          1 OA0      -0.810634
    122 O32         -5.4510    -3.8230     5.3660 o          1 OA0      -0.840422
    123 C91         -2.1340    -5.9070    -3.6900 ca         1 OA0       0.418354
    124 C92          0.3580    -7.0010    -4.2790 ca         1 OA0      -0.422147
    125 C93         -1.0080    -5.0740    -3.6610 ca         1 OA0      -0.455973
    126 C94         -2.0180    -7.2630    -4.0070 ca         1 OA0      -0.422147
    127 C95         -0.7760    -7.8220    -4.3170 ca         1 OA0       0.116489
    128 C96          0.2360    -5.6470    -3.9630 ca         1 OA0       0.418354
    129 H1          -2.1980     0.1210     4.7440 ha         1 OA0       0.176411
    130 H2          -4.6910     0.4370     0.5080 ha         1 OA0       0.111022
    131 H3          -3.7500    -3.0420     3.4610 hc         1 OA0       0.054615
    132 H4          -2.5660    -1.9470     0.3750 h2         1 OA0       0.009852
    133 H5          -0.2540    -2.3370     4.6510 ha         1 OA0       0.176411
    134 H6          -0.6540    -4.4950     0.2460 ha         1 OA0       0.111022
    135 H7           2.8620    -3.7610     3.1400 hc         1 OA0       0.054615
    136 H8           1.8300    -2.2810     0.3130 h2         1 OA0       0.009852
    137 H9          -3.0120     3.5550     3.4560 hc         1 OA0       0.054615
    138 H10          4.4570    -0.5040     0.3410 ha         1 OA0       0.111022
    139 H11          0.3530     4.4520     0.4680 ha         1 OA0       0.111022
    140 H12          2.3080     1.8070     0.4080 h2         1 OA0       0.009852
    141 H13          0.2070     2.0670     4.7810 ha         1 OA0       0.176411
    142 H14          2.1480    -0.3810     4.7020 ha         1 OA0       0.176411
    143 H15          3.5850     2.8510     3.3420 hc         1 OA0       0.054615
    144 H16         -2.0190     2.3320     0.4870 h2         1 OA0       0.009852
    145 H17          1.8990    -2.4580     5.7250 hc         1 OA0      -0.012399
    146 H18          1.8080    -4.1740     5.3790 hc         1 OA0      -0.012399
    147 H19          4.4210    -3.8770     4.7840 hc         1 OA0      -0.037028
    148 H20          4.3010    -2.5700     5.9360 hc         1 OA0      -0.037028
    149 H21         -3.8320    -1.8950     5.6500 hc         1 OA0      -0.012399
    150 H22         -2.0710    -1.9700     5.7580 hc         1 OA0      -0.012399
    151 H23         -2.4750    -4.6030     5.3530 hc         1 OA0      -0.037028
    152 H24         -2.6920    -3.9090     6.9370 hc         1 OA0      -0.037028
    153 H25         -3.5180     2.4980     5.6810 hc         1 OA0      -0.012399
    154 H26         -1.8050     2.2160     5.9170 hc         1 OA0      -0.012399
    155 H27         -1.4030     4.5730     6.2270 hc         1 OA0      -0.037028
    156 H28         -2.7040     5.0200     5.1520 hc         1 OA0      -0.037028
    157 H29          2.6540     3.3560     5.6010 hc         1 OA0      -0.012399
    158 H30          2.3260     1.6490     5.8470 hc         1 OA0      -0.012399
    159 H31          4.6700     1.1850     6.1070 hc         1 OA0      -0.037028
    160 H32          5.1250     2.4230     4.9640 hc         1 OA0      -0.037028
    161 H33         -5.1330    -3.7380    -4.4580 ha         1 OA0       0.215261
    162 H34         -2.6750    -4.7260    -1.0670 ha         1 OA0       0.238721
    163 H35         -5.4160    -1.4150    -0.8470 ha         1 OA0       0.238721
    164 H36         -3.5910     4.7700    -4.4420 ha         1 OA0       0.215261
    165 H37         -1.6630     5.3430    -0.6400 ha         1 OA0       0.238721
    166 H38         -4.5700     2.2000    -1.1310 ha         1 OA0       0.238721
    167 H39          4.5650     3.4420    -4.5880 ha         1 OA0       0.215261
    168 H40          5.2850     1.5020    -0.8160 ha         1 OA0       0.238721
    169 H41          2.0870     4.3680    -1.1940 ha         1 OA0       0.238721
    170 H42          3.6130    -3.9660    -4.8500 ha         1 OA0       0.215261
    171 H43          4.8220    -2.6020    -0.9510 ha         1 OA0       0.238721
    172 H44          1.0000    -4.5260    -1.4780 ha         1 OA0       0.238721
    173 H45         -0.9850     8.6230    -3.5820 ha         1 OA0       0.192158
    174 H46          0.0320     4.4440    -3.1420 ha         1 OA0       0.188451
    175 H47          3.0550     7.3590    -4.1560 ha         1 OA0       0.192158
    176 H48         -7.5570     3.2470    -3.9480 ha         1 OA0       0.192158
    177 H49         -8.7610    -0.8370    -3.6060 ha         1 OA0       0.192158
    178 H50         -4.5810     0.1980    -3.2370 ha         1 OA0       0.188451
    179 H51          8.0420    -2.9450    -4.1020 ha         1 OA0       0.192158
    180 H52          8.5650     1.2930    -3.9470 ha         1 OA0       0.192158
    181 H53          4.7030    -0.4190    -3.0200 ha         1 OA0       0.188451
    182 H54          1.3180    -7.4240    -4.5530 ha         1 OA0       0.192158
    183 H55         -1.0950    -4.0090    -3.4750 ha         1 OA0       0.188451
    184 H56         -2.8990    -7.8930    -4.0620 ha         1 OA0       0.192158
@<TRIPOS>BOND
     1     1     3 ar  
     2     1     4 ar  
     3     1    24 1   
     4     2     5 ar  
     5     2     6 ar  
     6     2     7 1   
     7     3     6 ar  
     8     3   129 1   
     9     4     5 ar  
    10     4    23 1   
    11     5   130 1   
    12     6     8 1   
    13     7     9 1   
    14     8    12 1   
    15     8    45 1   
    16     8   131 1   
    17     9    10 1   
    18     9    57 1   
    19     9   132 1   
    20    10    11 1   
    21    11    12 ar  
    22    11    14 ar  
    23    12    13 ar  
    24    13    15 ar  
    25    13   133 1   
    26    14    16 ar  
    27    14   134 1   
    28    15    16 ar  
    29    15    18 1   
    30    16    17 1   
    31    17    21 1   
    32    18    19 1   
    33    18    41 1   
    34    18   135 1   
    35    19    20 ar  
    36    19    37 ar  
    37    20    22 1   
    38    20    28 ar  
    39    21    22 1   
    40    21    75 1   
    41    21   136 1   
    42    23    40 1   
    43    24    25 1   
    44    24    49 1   
    45    24   137 1   
    46    25    27 ar  
    47    25    35 ar  
    48    26    27 1   
    49    26    40 1   
    50    27    30 ar  
    51    28    29 ar  
    52    28   138 1   
    53    29    32 1   
    54    29    39 ar  
    55    30    31 ar  
    56    30   139 1   
    57    31    33 1   
    58    31    36 ar  
    59    32    34 1   
    60    33    34 1   
    61    34    69 1   
    62    34   140 1   
    63    35    36 ar  
    64    35   141 1   
    65    36    38 1   
    66    37    39 ar  
    67    37   142 1   
    68    38    39 1   
    69    38    53 1   
    70    38   143 1   
    71    40    63 1   
    72    40   144 1   
    73    41    42 1   
    74    41   145 1   
    75    41   146 1   
    76    42    43 1   
    77    42   147 1   
    78    42   148 1   
    79    43    44 1   
    80    43   113 1   
    81    45    46 1   
    82    45   149 1   
    83    45   150 1   
    84    46    47 1   
    85    46   151 1   
    86    46   152 1   
    87    47    48 1   
    88    47   122 1   
    89    49    50 1   
    90    49   153 1   
    91    49   154 1   
    92    50    51 1   
    93    50   155 1   
    94    50   156 1   
    95    51    52 1   
    96    51   115 1   
    97    53    54 1   
    98    53   157 1   
    99    53   158 1   
   100    54    55 1   
   101    54   159 1   
   102    54   160 1   
   103    55    56 1   
   104    55   114 1   
   105    57    59 ar  
   106    57    60 ar  
   107    58    61 ar  
   108    58    62 ar  
   109    58   161 1   
   110    59    62 ar  
   111    59   162 1   
   112    60    61 ar  
   113    60   163 1   
   114    61    84 1   
   115    62    85 1   
   116    63    65 ar  
   117    63    66 ar  
   118    64    67 ar  
   119    64    68 ar  
   120    64   164 1   
   121    65    68 ar  
   122    65   165 1   
   123    66    67 ar  
   124    66   166 1   
   125    67    81 1   
   126    68    94 1   
   127    69    71 ar  
   128    69    72 ar  
   129    70    73 ar  
   130    70    74 ar  
   131    70   167 1   
   132    71    74 ar  
   133    71   168 1   
   134    72    73 ar  
   135    72   169 1   
   136    73    82 1   
   137    74    83 1   
   138    75    77 ar  
   139    75    78 ar  
   140    76    79 ar  
   141    76    80 ar  
   142    76   170 1   
   143    77    80 ar  
   144    77   171 1   
   145    78    79 ar  
   146    78   172 1   
   147    79    87 1   
   148    80    86 1   
   149    81    99 1   
   150    82    88 1   
   151    83   101 1   
   152    84    95 1   
   153    85   123 1   
   154    86   105 1   
   155    87   128 1   
   156    88    90 ar  
   157    88    91 ar  
   158    89    92 ar  
   159    89    93 ar  
   160    89   173 1   
   161    90    93 ar  
   162    90   174 1   
   163    91    92 ar  
   164    91   175 1   
   165    92   116 1   
   166    93    94 1   
   167    95    97 ar  
   168    95    98 ar  
   169    96    99 ar  
   170    96   100 ar  
   171    96   176 1   
   172    97   100 ar  
   173    97   177 1   
   174    98    99 ar  
   175    98   178 1   
   176   100   111 1   
   177   101   103 ar  
   178   101   104 ar  
   179   102   105 ar  
   180   102   106 ar  
   181   102   179 1   
   182   103   106 ar  
   183   103   180 1   
   184   104   105 ar  
   185   104   181 1   
   186   106   107 1   
   187   107   108 1   
   188   107   119 1   
   189   109   110 1   
   190   109   118 1   
   191   109   127 1   
   192   111   112 1   
   193   111   121 1   
   194   116   117 1   
   195   116   120 1   
   196   123   125 ar  
   197   123   126 ar  
   198   124   127 ar  
   199   124   128 ar  
   200   124   182 1   
   201   125   128 ar  
   202   125   183 1   
   203   126   127 ar  
   204   126   184 1   
@<TRIPOS>SUBSTRUCTURE
     1 OA0         1 TEMP              0 ****  ****    0 ROOT
