@<TRIPOS>MOLECULE
TEM
  196   216     1     0     0
SMALL
resp


@<TRIPOS>ATOM
      1 C1           2.8350    -1.2600     3.2920 ca         1 TEM      -0.139284
      2 C2           3.5980     1.1810     2.1020 ca         1 TEM       0.253365
      3 C3           2.5000    -0.0160     3.8610 ca         1 TEM      -0.193736
      4 C4           3.5830    -1.2250     2.1020 ca         1 TEM       0.253365
      5 C5           3.9740    -0.0250     1.5250 ca         1 TEM      -0.302379
      6 C6           2.8500     1.2240     3.2920 ca         1 TEM      -0.139284
      7 O1           3.9910     2.3370     1.4220 os         1 TEM      -0.429472
      8 C7           2.4300     2.5950     3.8530 c3         1 TEM       0.198672
      9 C8           2.9780     2.9360     0.6330 c3         1 TEM       0.585119
     10 O2           2.3560     4.0100     1.3170 os         1 TEM      -0.429472
     11 C9           1.1520     3.6820     1.9490 ca         1 TEM       0.253365
     12 C10          1.1070     3.0170     3.1870 ca         1 TEM      -0.139284
     13 C11         -0.1730     2.7130     3.6900 ca         1 TEM      -0.193736
     14 C12         -0.0080     4.0260     1.2670 ca         1 TEM      -0.302379
     15 C13         -1.3720     3.0130     3.0160 ca         1 TEM      -0.139284
     16 C14         -1.2490     3.6810     1.7850 ca         1 TEM       0.253365
     17 O3          -2.3570     4.0240     1.0040 os         1 TEM      -0.429472
     18 C15         -2.7770     2.6260     3.5130 c3         1 TEM       0.198672
     19 C16         -3.1670     1.2630     2.9100 ca         1 TEM      -0.139284
     20 C17         -3.7510     1.2270     1.6310 ca         1 TEM       0.253365
     21 C18         -2.9080     2.9600     0.2490 c3         1 TEM       0.585119
     22 O4          -4.0270     2.3870     0.9000 os         1 TEM      -0.429472
     23 O5           3.9610    -2.3870     1.4210 os         1 TEM      -0.429472
     24 C19          2.3980    -2.6250     3.8530 c3         1 TEM       0.198672
     25 C20          1.0700    -3.0310     3.1860 ca         1 TEM      -0.139284
     26 O6           2.3060    -4.0390     1.3160 os         1 TEM      -0.429472
     27 C21          1.1070    -3.6950     1.9480 ca         1 TEM       0.253365
     28 C22         -4.0640     0.0250     1.0100 ca         1 TEM      -0.302379
     29 C23         -3.7660    -1.1810     1.6310 ca         1 TEM       0.253365
     30 C24         -0.0580    -4.0250     1.2670 ca         1 TEM      -0.302379
     31 C25         -1.2950    -3.6650     1.7850 ca         1 TEM       0.253365
     32 O7          -4.0570    -2.3370     0.9000 os         1 TEM      -0.429472
     33 O8          -2.4070    -3.9940     1.0040 os         1 TEM      -0.429472
     34 C26         -2.9440    -2.9230     0.2480 c3         1 TEM       0.585119
     35 C27         -0.2060    -2.7110     3.6900 ca         1 TEM      -0.193736
     36 C28         -1.4090    -2.9960     3.0160 ca         1 TEM      -0.139284
     37 C29         -2.9120     0.0180     3.5170 ca         1 TEM      -0.193736
     38 C30         -2.8100    -2.5910     3.5130 c3         1 TEM       0.198672
     39 C31         -3.1820    -1.2230     2.9100 ca         1 TEM      -0.139284
     40 C32          2.9410    -2.9730     0.6330 c3         1 TEM       0.585119
     41 C33         -3.0140     2.8030     5.0340 c3         1 TEM      -0.015911
     42 C34         -4.5040     2.8280     5.4380 c3         1 TEM      -0.116480
     43 C35         -4.9030     3.8960     6.5400 c          1 TEM       0.836637
     44 O9          -4.0460     4.7700     6.8310 o          1 TEM      -0.837382
     45 C36          2.5090     2.7350     5.3940 c3         1 TEM      -0.015911
     46 C37          2.5000     4.1960     5.8920 c3         1 TEM      -0.116480
     47 C38          3.4830     4.5260     7.0900 c          1 TEM       0.836637
     48 O10          4.3510     3.6620     7.3770 o          1 TEM      -0.837382
     49 C39          2.4750    -2.7670     5.3930 c3         1 TEM      -0.015911
     50 C40          2.4470    -4.2280     5.8910 c3         1 TEM      -0.116480
     51 C41          3.4260    -4.5700     7.0900 c          1 TEM       0.836637
     52 O11          4.3050    -3.7170     7.3760 o          1 TEM      -0.837382
     53 C42         -3.0490    -2.7650     5.0340 c3         1 TEM      -0.015911
     54 C43         -4.5390    -2.7720     5.4380 c3         1 TEM      -0.116480
     55 C44         -4.9510    -3.8340     6.5410 c          1 TEM       0.836637
     56 O12         -4.1050    -4.7190     6.8310 o          1 TEM      -0.837382
     57 C45          3.5500     3.4090    -0.7030 ca         1 TEM       0.014493
     58 C46          4.3380     4.0060    -3.3070 ca         1 TEM      -0.580247
     59 C47          2.8950     4.4320    -1.4060 ca         1 TEM      -0.357570
     60 C48          4.6090     2.6970    -1.2840 ca         1 TEM      -0.357570
     61 C49          4.9930     3.0000    -2.5940 ca         1 TEM       0.500902
     62 C50          3.2940     4.7190    -2.7140 ca         1 TEM       0.500902
     63 C51          3.5070    -3.4520    -0.7030 ca         1 TEM       0.014493
     64 C52          4.2880    -4.0590    -3.3080 ca         1 TEM      -0.580247
     65 C53          2.8390    -4.4670    -1.4060 ca         1 TEM      -0.357570
     66 C54          4.5750    -2.7530    -1.2850 ca         1 TEM      -0.357570
     67 C55          4.9550    -3.0610    -2.5950 ca         1 TEM       0.500902
     68 C56          3.2340    -4.7590    -2.7150 ca         1 TEM       0.500902
     69 C57         -3.3330    -3.4000    -1.1510 ca         1 TEM       0.014493
     70 C58         -3.7690    -4.0110    -3.8340 ca         1 TEM      -0.580247
     71 C59         -4.3050    -2.6900    -1.8730 ca         1 TEM      -0.357570
     72 C60         -2.5920    -4.4270    -1.7560 ca         1 TEM      -0.357570
     73 C61         -2.8140    -4.7220    -3.1040 ca         1 TEM       0.500902
     74 C62         -4.5110    -3.0000    -3.2200 ca         1 TEM       0.500902
     75 C63         -3.2900     3.4410    -1.1510 ca         1 TEM       0.014493
     76 C64         -3.7190     4.0570    -3.8340 ca         1 TEM      -0.580247
     77 C65         -4.2710     2.7440    -1.8720 ca         1 TEM      -0.357570
     78 C66         -2.5360     4.4590    -1.7560 ca         1 TEM      -0.357570
     79 C67         -2.7550     4.7560    -3.1040 ca         1 TEM       0.500902
     80 C68         -4.4730     3.0560    -3.2200 ca         1 TEM       0.500902
     81 O13          5.9900    -2.4700    -3.2860 os         1 TEM      -0.373652
     82 O14         -2.1760    -5.7090    -3.8230 os         1 TEM      -0.373652
     83 O15         -5.4340    -2.4000    -4.0470 os         1 TEM      -0.373652
     84 O16          6.0210     2.3960    -3.2850 os         1 TEM      -0.373652
     85 O17          2.7530     5.6970    -3.5180 os         1 TEM      -0.373652
     86 O18         -5.4050     2.4680    -4.0470 os         1 TEM      -0.373652
     87 O19         -2.1050     5.7350    -3.8230 os         1 TEM      -0.373652
     88 C69         -0.9590    -6.3110    -3.4820 ca         1 TEM       0.189407
     89 C70          1.4180    -7.7160    -3.2650 ca         1 TEM      -0.296582
     90 C71          0.2410    -5.5700    -3.4750 ca         1 TEM       0.030186
     91 C72         -0.9730    -7.7050    -3.4140 ca         1 TEM      -0.296582
     92 C73          0.2190    -8.4310    -3.3320 ca         1 TEM      -0.004859
     93 C74          1.4260    -6.3230    -3.3330 ca         1 TEM       0.189407
     94 O20          2.6810    -5.7310    -3.5180 os         1 TEM      -0.373652
     95 C75          6.5890     1.1540    -2.9760 ca         1 TEM       0.189407
     96 C76          7.9580    -1.2470    -2.8000 ca         1 TEM      -0.296582
     97 C77          7.9730     1.1480    -2.7990 ca         1 TEM      -0.296582
     98 C78          5.8420    -0.0360    -3.1000 ca         1 TEM       0.030186
     99 C79          6.5740    -1.2350    -2.9760 ca         1 TEM       0.189407
    100 C80          8.6830    -0.0540    -2.7350 ca         1 TEM      -0.004859
    101 C81         -6.0410    -1.1570    -3.8290 ca         1 TEM       0.189407
    102 C82         -7.4210     1.2440    -3.8640 ca         1 TEM      -0.296582
    103 C83         -7.4350    -1.1520    -3.8640 ca         1 TEM      -0.296582
    104 C84         -5.2830     0.0330    -3.8420 ca         1 TEM       0.030186
    105 C85         -6.0260     1.2320    -3.8290 ca         1 TEM       0.189407
    106 C86         -8.1470     0.0500    -3.9110 ca         1 TEM      -0.004859
    107 C87         -9.6900     0.0600    -4.1260 c          1 TEM       0.848856
    108 O21        -10.2320    -1.0730    -4.2200 o          1 TEM      -0.817286
    109 C88          0.3410     9.9820    -3.4300 c          1 TEM       0.848856
    110 O22          1.4820    10.5140    -3.4130 o          1 TEM      -0.817286
    111 C89         10.2410    -0.0640    -2.7090 c          1 TEM       0.848856
    112 O23         10.7770    -1.2030    -2.7180 o          1 TEM      -0.817286
    113 O24         -6.0770     3.7700     6.9820 o          1 TEM      -0.837382
    114 O25         -6.1230    -3.6930     6.9820 o          1 TEM      -0.837382
    115 O26          3.2360    -5.7050     7.6050 o          1 TEM      -0.837382
    116 C90          0.2180    -9.9860    -3.4300 c          1 TEM       0.848856
    117 O27          1.3520   -10.5310    -3.4130 o          1 TEM      -0.817286
    118 O28         -0.7850    10.5310    -3.5520 o          1 TEM      -0.817286
    119 O29        -10.2180     1.1990    -4.2190 o          1 TEM      -0.817286
    120 O30         -0.9150   -10.5210    -3.5520 o          1 TEM      -0.817286
    121 O31         10.7910     1.0680    -2.7170 o          1 TEM      -0.817286
    122 O32          3.3080     5.6630     7.6060 o          1 TEM      -0.837382
    123 C91          1.5040     6.3050    -3.3330 ca         1 TEM       0.189407
    124 C92         -0.8770     7.7160    -3.4150 ca         1 TEM      -0.296582
    125 C93          0.3110     5.5660    -3.4750 ca         1 TEM       0.030186
    126 C94          1.5140     7.6980    -3.2650 ca         1 TEM      -0.296582
    127 C95          0.3230     8.4270    -3.3320 ca         1 TEM      -0.004859
    128 C96         -0.8800     6.3220    -3.4830 ca         1 TEM       0.189407
    129 C97          0.3160     4.0790    -3.7280 c3         1 TEM      -0.322621
    130 C98          4.3790    -0.0270    -3.4660 c3         1 TEM      -0.322621
    131 C99          0.2650    -4.0830    -3.7280 c3         1 TEM      -0.322621
    132 C100        -3.7820     0.0240    -3.9900 c3         1 TEM      -0.322621
    133 H1           1.9290    -0.0120     4.7850 ha         1 TEM       0.169246
    134 H2           4.5530    -0.0280     0.6070 ha         1 TEM       0.170144
    135 H3           3.1770     3.2940     3.4620 hc         1 TEM       0.059179
    136 H4           2.2130     2.1760     0.4200 h2         1 TEM      -0.004501
    137 H5          -0.2390     2.2050     4.6480 ha         1 TEM       0.169246
    138 H6           0.0570     4.5430     0.3160 ha         1 TEM       0.170144
    139 H7          -3.4470     3.3460     3.0330 hc         1 TEM       0.059179
    140 H8          -2.1390     2.1830     0.1370 h2         1 TEM      -0.004501
    141 H9           3.1350    -3.3330     3.4620 hc         1 TEM       0.059179
    142 H10         -4.5160     0.0280     0.0240 ha         1 TEM       0.170144
    143 H11          0.0010    -4.5430     0.3150 ha         1 TEM       0.170144
    144 H12         -2.1660    -2.1560     0.1370 h2         1 TEM      -0.004501
    145 H13         -0.2660    -2.2020     4.6480 ha         1 TEM       0.169246
    146 H14         -2.4660     0.0150     4.5080 ha         1 TEM       0.169246
    147 H15         -3.4890    -3.3030     3.0320 hc         1 TEM       0.059179
    148 H16          2.1860    -2.2030     0.4200 h2         1 TEM      -0.004501
    149 H17         -2.4700     2.0420     5.6120 hc         1 TEM       0.021102
    150 H18         -2.5990     3.7720     5.3360 hc         1 TEM       0.021102
    151 H19         -5.1220     3.0650     4.5580 hc         1 TEM       0.000181
    152 H20         -4.8540     1.8450     5.7750 hc         1 TEM       0.000181
    153 H21          3.4600     2.3040     5.7290 hc         1 TEM       0.021102
    154 H22          1.7170     2.1550     5.8870 hc         1 TEM       0.021102
    155 H23          2.7980     4.8670     5.0700 hc         1 TEM       0.000181
    156 H24          1.4930     4.5250     6.1770 hc         1 TEM       0.000181
    157 H25          3.4310    -2.3480     5.7290 hc         1 TEM       0.021102
    158 H26          1.6900    -2.1760     5.8870 hc         1 TEM       0.021102
    159 H27          1.4360    -4.5430     6.1760 hc         1 TEM       0.000181
    160 H28          2.7370    -4.9020     5.0690 hc         1 TEM       0.000181
    161 H29         -2.6460    -3.7400     5.3360 hc         1 TEM       0.021102
    162 H30         -2.4960    -2.0120     5.6120 hc         1 TEM       0.021102
    163 H31         -4.8770    -1.7850     5.7730 hc         1 TEM       0.000181
    164 H32         -5.1590    -3.0030     4.5570 hc         1 TEM       0.000181
    165 H33          4.6350     4.2280    -4.3260 ha         1 TEM       0.201179
    166 H34          2.0930     4.9890    -0.9370 ha         1 TEM       0.170966
    167 H35          5.1210     1.9250    -0.7230 ha         1 TEM       0.170966
    168 H36          4.5820    -4.2850    -4.3270 ha         1 TEM       0.201179
    169 H37          2.0310    -5.0140    -0.9370 ha         1 TEM       0.170966
    170 H38          5.0960    -1.9880    -0.7230 ha         1 TEM       0.170966
    171 H39         -3.9280    -4.2390    -4.8820 ha         1 TEM       0.201179
    172 H40         -4.8860    -1.9160    -1.3880 ha         1 TEM       0.170966
    173 H41         -1.8610    -4.9830    -1.1810 ha         1 TEM       0.170966
    174 H42         -3.8750     4.2870    -4.8820 ha         1 TEM       0.201179
    175 H43         -4.8620     1.9770    -1.3870 ha         1 TEM       0.170966
    176 H44         -1.7980     5.0050    -1.1810 ha         1 TEM       0.170966
    177 H45          2.3510    -8.2690    -3.2210 ha         1 TEM       0.183530
    178 H46         -1.9090    -8.2480    -3.4870 ha         1 TEM       0.183530
    179 H47          8.5000    -2.1870    -2.7710 ha         1 TEM       0.183530
    180 H48          8.5270     2.0810    -2.7700 ha         1 TEM       0.183530
    181 H49         -7.9600     2.1830    -3.9190 ha         1 TEM       0.183530
    182 H50         -7.9860    -2.0850    -3.9190 ha         1 TEM       0.183530
    183 H51         -1.8060     8.2700    -3.4870 ha         1 TEM       0.183530
    184 H52          2.4530     8.2390    -3.2210 ha         1 TEM       0.183530
    185 H53          1.2370     3.7790    -4.2360 hc         1 TEM       0.096857
    186 H54          0.2510     3.4960    -2.8010 hc         1 TEM       0.096857
    187 H55         -0.5360     3.7920    -4.3510 hc         1 TEM       0.096857
    188 H56          3.7270    -0.0230    -2.5840 hc         1 TEM       0.096857
    189 H57          4.1350     0.8640    -4.0530 hc         1 TEM       0.096857
    190 H58          4.1240    -0.9130    -4.0530 hc         1 TEM       0.096857
    191 H59         -0.5840    -3.7860    -4.3510 hc         1 TEM       0.096857
    192 H60          0.2070    -3.4990    -2.8020 hc         1 TEM       0.096857
    193 H61          1.1890    -3.7940    -4.2360 hc         1 TEM       0.096857
    194 H62         -3.2650     0.0200    -3.0220 hc         1 TEM       0.096857
    195 H63         -3.4550    -0.8660    -4.5340 hc         1 TEM       0.096857
    196 H64         -3.4440     0.9100    -4.5340 hc         1 TEM       0.096857
@<TRIPOS>BOND
     1     1     3 ar  
     2     1     4 ar  
     3     1    24 1   
     4     2     5 ar  
     5     2     6 ar  
     6     2     7 1   
     7     3     6 ar  
     8     3   133 1   
     9     4     5 ar  
    10     4    23 1   
    11     5   134 1   
    12     6     8 1   
    13     7     9 1   
    14     8    12 1   
    15     8    45 1   
    16     8   135 1   
    17     9    10 1   
    18     9    57 1   
    19     9   136 1   
    20    10    11 1   
    21    11    12 ar  
    22    11    14 ar  
    23    12    13 ar  
    24    13    15 ar  
    25    13   137 1   
    26    14    16 ar  
    27    14   138 1   
    28    15    16 ar  
    29    15    18 1   
    30    16    17 1   
    31    17    21 1   
    32    18    19 1   
    33    18    41 1   
    34    18   139 1   
    35    19    20 ar  
    36    19    37 ar  
    37    20    22 1   
    38    20    28 ar  
    39    21    22 1   
    40    21    75 1   
    41    21   140 1   
    42    23    40 1   
    43    24    25 1   
    44    24    49 1   
    45    24   141 1   
    46    25    27 ar  
    47    25    35 ar  
    48    26    27 1   
    49    26    40 1   
    50    27    30 ar  
    51    28    29 ar  
    52    28   142 1   
    53    29    32 1   
    54    29    39 ar  
    55    30    31 ar  
    56    30   143 1   
    57    31    33 1   
    58    31    36 ar  
    59    32    34 1   
    60    33    34 1   
    61    34    69 1   
    62    34   144 1   
    63    35    36 ar  
    64    35   145 1   
    65    36    38 1   
    66    37    39 ar  
    67    37   146 1   
    68    38    39 1   
    69    38    53 1   
    70    38   147 1   
    71    40    63 1   
    72    40   148 1   
    73    41    42 1   
    74    41   149 1   
    75    41   150 1   
    76    42    43 1   
    77    42   151 1   
    78    42   152 1   
    79    43    44 1   
    80    43   113 1   
    81    45    46 1   
    82    45   153 1   
    83    45   154 1   
    84    46    47 1   
    85    46   155 1   
    86    46   156 1   
    87    47    48 1   
    88    47   122 1   
    89    49    50 1   
    90    49   157 1   
    91    49   158 1   
    92    50    51 1   
    93    50   159 1   
    94    50   160 1   
    95    51    52 1   
    96    51   115 1   
    97    53    54 1   
    98    53   161 1   
    99    53   162 1   
   100    54    55 1   
   101    54   163 1   
   102    54   164 1   
   103    55    56 1   
   104    55   114 1   
   105    57    59 ar  
   106    57    60 ar  
   107    58    61 ar  
   108    58    62 ar  
   109    58   165 1   
   110    59    62 ar  
   111    59   166 1   
   112    60    61 ar  
   113    60   167 1   
   114    61    84 1   
   115    62    85 1   
   116    63    65 ar  
   117    63    66 ar  
   118    64    67 ar  
   119    64    68 ar  
   120    64   168 1   
   121    65    68 ar  
   122    65   169 1   
   123    66    67 ar  
   124    66   170 1   
   125    67    81 1   
   126    68    94 1   
   127    69    71 ar  
   128    69    72 ar  
   129    70    73 ar  
   130    70    74 ar  
   131    70   171 1   
   132    71    74 ar  
   133    71   172 1   
   134    72    73 ar  
   135    72   173 1   
   136    73    82 1   
   137    74    83 1   
   138    75    77 ar  
   139    75    78 ar  
   140    76    79 ar  
   141    76    80 ar  
   142    76   174 1   
   143    77    80 ar  
   144    77   175 1   
   145    78    79 ar  
   146    78   176 1   
   147    79    87 1   
   148    80    86 1   
   149    81    99 1   
   150    82    88 1   
   151    83   101 1   
   152    84    95 1   
   153    85   123 1   
   154    86   105 1   
   155    87   128 1   
   156    88    90 ar  
   157    88    91 ar  
   158    89    92 ar  
   159    89    93 ar  
   160    89   177 1   
   161    90    93 ar  
   162    90   131 1   
   163    91    92 ar  
   164    91   178 1   
   165    92   116 1   
   166    93    94 1   
   167    95    97 ar  
   168    95    98 ar  
   169    96    99 ar  
   170    96   100 ar  
   171    96   179 1   
   172    97   100 ar  
   173    97   180 1   
   174    98    99 ar  
   175    98   130 1   
   176   100   111 1   
   177   101   103 ar  
   178   101   104 ar  
   179   102   105 ar  
   180   102   106 ar  
   181   102   181 1   
   182   103   106 ar  
   183   103   182 1   
   184   104   105 ar  
   185   104   132 1   
   186   106   107 1   
   187   107   108 1   
   188   107   119 1   
   189   109   110 1   
   190   109   118 1   
   191   109   127 1   
   192   111   112 1   
   193   111   121 1   
   194   116   117 1   
   195   116   120 1   
   196   123   125 ar  
   197   123   126 ar  
   198   124   127 ar  
   199   124   128 ar  
   200   124   183 1   
   201   125   128 ar  
   202   125   129 1   
   203   126   127 ar  
   204   126   184 1   
   205   129   185 1   
   206   129   186 1   
   207   129   187 1   
   208   130   188 1   
   209   130   189 1   
   210   130   190 1   
   211   131   191 1   
   212   131   192 1   
   213   131   193 1   
   214   132   194 1   
   215   132   195 1   
   216   132   196 1   
@<TRIPOS>SUBSTRUCTURE
     1 TEM         1 TEMP              0 ****  ****    0 ROOT
