@<TRIPOS>MOLECULE
WP6
  150   156     1     0     0
SMALL
resp


@<TRIPOS>ATOM
      1 C1          -3.2860     4.2740     1.2110 ca         1 WP6       0.196215
      2 C2          -2.0590     4.9830    -1.2110 ca         1 WP6       0.196215
      3 C3          -3.8510     3.7780     0.0120 ca         1 WP6       0.014266
      4 C4          -2.0120     4.8790     1.1800 ca         1 WP6      -0.301870
      5 C5          -1.3460     5.2240    -0.0110 ca         1 WP6       0.014266
      6 C6          -3.2190     4.1820    -1.1800 ca         1 WP6      -0.301870
      7 H1          -1.5260     5.1310     2.1200 ha         1 WP6       0.149624
      8 H2          -3.6800     3.8870    -2.1190 ha         1 WP6       0.149624
      9 C7          -5.1850     2.9940     0.0000 c3         1 WP6      -0.196526
     10 H3          -5.7500     3.3050    -0.8850 hc         1 WP6       0.127388
     11 H4          -5.7380     3.3270     0.8860 hc         1 WP6       0.127388
     12 O1          -4.0320     4.1530     2.3720 os         1 WP6      -0.239973
     13 O2          -1.5810     5.5680    -2.3720 os         1 WP6      -0.239973
     14 C8          -3.9360     5.1710     3.3800 c3         1 WP6      -0.058720
     15 H5          -3.4080     6.0440     2.9730 h1         1 WP6       0.030606
     16 H6          -3.3290     4.7960     4.2160 h1         1 WP6       0.030606
     17 C9          -2.5110     5.9940    -3.3800 c3         1 WP6      -0.058720
     18 H7          -2.4890     5.2810    -4.2160 h1         1 WP6       0.030606
     19 H8          -3.5300     5.9720    -2.9720 h1         1 WP6       0.030606
     20 C10         -5.2980     5.7060     3.9740 c          1 WP6       0.889815
     21 C11         -2.2940     7.4420    -3.9730 c          1 WP6       0.889815
     22 O3          -6.3690     5.4940     3.3640 o          1 WP6      -0.869847
     23 O4          -1.5750     8.2640    -3.3620 o          1 WP6      -0.869847
     24 O5          -5.1180     6.3820     5.0350 o          1 WP6      -0.869847
     25 O6          -2.9690     7.6240    -5.0340 o          1 WP6      -0.869847
     26 C12         -5.3450    -0.7090     1.2110 ca         1 WP6       0.196215
     27 C13         -5.3440     0.7090    -1.2110 ca         1 WP6       0.196215
     28 C14         -5.1970    -1.4460     0.0110 ca         1 WP6       0.014266
     29 C15         -5.2310     0.6970     1.1800 ca         1 WP6      -0.301870
     30 C16         -5.1970     1.4460    -0.0120 ca         1 WP6       0.014266
     31 C17         -5.2310    -0.6970    -1.1810 ca         1 WP6      -0.301870
     32 H9          -5.2070     1.2430     2.1190 ha         1 WP6       0.149624
     33 H10         -5.2060    -1.2440    -2.1200 ha         1 WP6       0.149624
     34 C18         -5.1850    -2.9940    -0.0000 c3         1 WP6      -0.196526
     35 H11         -5.7380    -3.3270    -0.8860 hc         1 WP6       0.127388
     36 H12         -5.7500    -3.3050     0.8850 hc         1 WP6       0.127388
     37 O7          -5.6130    -1.4160     2.3720 os         1 WP6      -0.239973
     38 O8          -5.6120     1.4160    -2.3720 os         1 WP6      -0.239973
     39 C19         -6.4460    -0.8230     3.3800 c3         1 WP6      -0.058720
     40 H13         -6.9380     0.0710     2.9720 h1         1 WP6       0.030606
     41 H14         -5.8170    -0.4840     4.2150 h1         1 WP6       0.030606
     42 C20         -6.4450     0.8230    -3.3810 c3         1 WP6      -0.058720
     43 H15         -5.8160     0.4850    -4.2160 h1         1 WP6       0.030606
     44 H16         -6.9360    -0.0710    -2.9730 h1         1 WP6       0.030606
     45 C21         -7.5900    -1.7340     3.9750 c          1 WP6       0.889815
     46 C22         -7.5900     1.7340    -3.9750 c          1 WP6       0.889815
     47 O9          -8.0850    -1.2400     5.0370 o          1 WP6      -0.869847
     48 O10         -8.0840     1.2400    -5.0360 o          1 WP6      -0.869847
     49 O11         -7.9440    -2.7680     3.3650 o          1 WP6      -0.869847
     50 O12         -7.9430     2.7680    -3.3650 o          1 WP6      -0.869847
     51 C23         -2.0590    -4.9830     1.2110 ca         1 WP6       0.196215
     52 C24         -3.2860    -4.2750    -1.2110 ca         1 WP6       0.196215
     53 C25         -1.3460    -5.2240     0.0110 ca         1 WP6       0.014266
     54 C26         -3.2200    -4.1820     1.1800 ca         1 WP6      -0.301870
     55 C27         -3.8510    -3.7780    -0.0120 ca         1 WP6       0.014266
     56 C28         -2.0120    -4.8800    -1.1810 ca         1 WP6      -0.301870
     57 H17         -3.6800    -3.8870     2.1190 ha         1 WP6       0.149624
     58 H18         -1.5260    -5.1310    -2.1200 ha         1 WP6       0.149624
     59 C29          0.0000    -5.9880    -0.0000 c3         1 WP6      -0.196526
     60 H19          0.0130    -6.6330    -0.8860 hc         1 WP6       0.127388
     61 H20         -0.0130    -6.6330     0.8850 hc         1 WP6       0.127388
     62 O13         -1.5810    -5.5690     2.3720 os         1 WP6      -0.239973
     63 O14         -4.0320    -4.1540    -2.3730 os         1 WP6      -0.239973
     64 C30         -2.5110    -5.9930     3.3810 c3         1 WP6      -0.058720
     65 H21         -3.5300    -5.9720     2.9730 h1         1 WP6       0.030606
     66 H22         -2.4890    -5.2790     4.2150 h1         1 WP6       0.030606
     67 C31         -3.9350    -5.1720    -3.3810 c3         1 WP6      -0.058720
     68 H23         -3.3280    -4.7970    -4.2160 h1         1 WP6       0.030606
     69 H24         -3.4080    -6.0440    -2.9730 h1         1 WP6       0.030606
     70 C32         -2.2940    -7.4400     3.9750 c          1 WP6       0.889815
     71 C33         -5.2970    -5.7070    -3.9750 c          1 WP6       0.889815
     72 O15         -2.9690    -7.6200     5.0370 o          1 WP6      -0.869847
     73 O16         -5.1170    -6.3810    -5.0370 o          1 WP6      -0.869847
     74 O17         -1.5770    -8.2630     3.3660 o          1 WP6      -0.869847
     75 O18         -6.3690    -5.4960    -3.3660 o          1 WP6      -0.869847
     76 C34          3.2860    -4.2740     1.2110 ca         1 WP6       0.196215
     77 C35          2.0590    -4.9830    -1.2110 ca         1 WP6       0.196215
     78 C36          3.8510    -3.7780     0.0120 ca         1 WP6       0.014266
     79 C37          2.0120    -4.8790     1.1800 ca         1 WP6      -0.301870
     80 C38          1.3460    -5.2240    -0.0110 ca         1 WP6       0.014266
     81 C39          3.2190    -4.1820    -1.1800 ca         1 WP6      -0.301870
     82 H25          1.5260    -5.1310     2.1200 ha         1 WP6       0.149624
     83 H26          3.6800    -3.8870    -2.1190 ha         1 WP6       0.149624
     84 C40          5.1850    -2.9940     0.0000 c3         1 WP6      -0.196526
     85 H27          5.7500    -3.3050    -0.8850 hc         1 WP6       0.127388
     86 H28          5.7380    -3.3270     0.8860 hc         1 WP6       0.127388
     87 O19          4.0320    -4.1530     2.3720 os         1 WP6      -0.239973
     88 O20          1.5810    -5.5680    -2.3720 os         1 WP6      -0.239973
     89 C41          3.9360    -5.1710     3.3800 c3         1 WP6      -0.058720
     90 H29          3.4080    -6.0440     2.9730 h1         1 WP6       0.030606
     91 H30          3.3290    -4.7960     4.2160 h1         1 WP6       0.030606
     92 C42          2.5110    -5.9940    -3.3800 c3         1 WP6      -0.058720
     93 H31          2.4890    -5.2810    -4.2160 h1         1 WP6       0.030606
     94 H32          3.5300    -5.9720    -2.9720 h1         1 WP6       0.030606
     95 C43          5.2980    -5.7060     3.9740 c          1 WP6       0.889815
     96 C44          2.2940    -7.4420    -3.9730 c          1 WP6       0.889815
     97 O21          5.1180    -6.3820     5.0350 o          1 WP6      -0.869847
     98 O22          2.9690    -7.6240    -5.0340 o          1 WP6      -0.869847
     99 O23          6.3690    -5.4940     3.3640 o          1 WP6      -0.869847
    100 O24          1.5750    -8.2640    -3.3620 o          1 WP6      -0.869847
    101 C45          5.3450     0.7090     1.2110 ca         1 WP6       0.196215
    102 C46          5.3440    -0.7090    -1.2110 ca         1 WP6       0.196215
    103 C47          5.1970     1.4460     0.0110 ca         1 WP6       0.014266
    104 C48          5.2310    -0.6970     1.1800 ca         1 WP6      -0.301870
    105 C49          5.1970    -1.4460    -0.0120 ca         1 WP6       0.014266
    106 C50          5.2310     0.6970    -1.1810 ca         1 WP6      -0.301870
    107 H33          5.2070    -1.2430     2.1190 ha         1 WP6       0.149624
    108 H34          5.2060     1.2440    -2.1200 ha         1 WP6       0.149624
    109 C51          5.1850     2.9940    -0.0000 c3         1 WP6      -0.196526
    110 H35          5.7380     3.3270    -0.8860 hc         1 WP6       0.127388
    111 H36          5.7500     3.3050     0.8850 hc         1 WP6       0.127388
    112 O25          5.6130     1.4160     2.3720 os         1 WP6      -0.239973
    113 O26          5.6120    -1.4160    -2.3720 os         1 WP6      -0.239973
    114 C52          6.4460     0.8230     3.3800 c3         1 WP6      -0.058720
    115 H37          6.9380    -0.0710     2.9720 h1         1 WP6       0.030606
    116 H38          5.8170     0.4840     4.2150 h1         1 WP6       0.030606
    117 C53          6.4450    -0.8230    -3.3810 c3         1 WP6      -0.058720
    118 H39          5.8160    -0.4850    -4.2160 h1         1 WP6       0.030606
    119 H40          6.9360     0.0710    -2.9730 h1         1 WP6       0.030606
    120 C54          7.5900     1.7340     3.9750 c          1 WP6       0.889815
    121 C55          7.5900    -1.7340    -3.9750 c          1 WP6       0.889815
    122 O27          8.0850     1.2400     5.0370 o          1 WP6      -0.869847
    123 O28          8.0840    -1.2400    -5.0360 o          1 WP6      -0.869847
    124 O29          7.9440     2.7680     3.3650 o          1 WP6      -0.869847
    125 O30          7.9430    -2.7680    -3.3650 o          1 WP6      -0.869847
    126 C56          2.0590     4.9830     1.2110 ca         1 WP6       0.196215
    127 C57          3.2860     4.2750    -1.2110 ca         1 WP6       0.196215
    128 C58          1.3460     5.2240     0.0110 ca         1 WP6       0.014266
    129 C59          3.2200     4.1820     1.1800 ca         1 WP6      -0.301870
    130 C60          3.8510     3.7780    -0.0120 ca         1 WP6       0.014266
    131 C61          2.0120     4.8800    -1.1810 ca         1 WP6      -0.301870
    132 H41          3.6800     3.8870     2.1190 ha         1 WP6       0.149624
    133 H42          1.5260     5.1310    -2.1200 ha         1 WP6       0.149624
    134 C62         -0.0000     5.9880    -0.0000 c3         1 WP6      -0.196526
    135 H43         -0.0130     6.6330    -0.8860 hc         1 WP6       0.127388
    136 H44          0.0130     6.6330     0.8850 hc         1 WP6       0.127388
    137 O31          1.5810     5.5690     2.3720 os         1 WP6      -0.239973
    138 O32          4.0320     4.1540    -2.3730 os         1 WP6      -0.239973
    139 C63          2.5110     5.9930     3.3810 c3         1 WP6      -0.058720
    140 H45          3.5300     5.9720     2.9730 h1         1 WP6       0.030606
    141 H46          2.4890     5.2790     4.2150 h1         1 WP6       0.030606
    142 C64          3.9350     5.1720    -3.3810 c3         1 WP6      -0.058720
    143 H47          3.3280     4.7970    -4.2160 h1         1 WP6       0.030606
    144 H48          3.4080     6.0440    -2.9730 h1         1 WP6       0.030606
    145 C65          2.2940     7.4400     3.9750 c          1 WP6       0.889815
    146 C66          5.2970     5.7070    -3.9750 c          1 WP6       0.889815
    147 O33          2.9690     7.6200     5.0370 o          1 WP6      -0.869847
    148 O34          5.1170     6.3810    -5.0370 o          1 WP6      -0.869847
    149 O35          1.5770     8.2630     3.3660 o          1 WP6      -0.869847
    150 O36          6.3690     5.4960    -3.3660 o          1 WP6      -0.869847
@<TRIPOS>BOND
     1     1     3 ar  
     2     1     4 ar  
     3     1    12 1   
     4     2     5 ar  
     5     2     6 ar  
     6     2    13 1   
     7     3     6 ar  
     8     3     9 1   
     9     4     5 ar  
    10     4     7 1   
    11     5   134 1   
    12     6     8 1   
    13     9    10 1   
    14     9    11 1   
    15     9    30 1   
    16    12    14 1   
    17    13    17 1   
    18    14    15 1   
    19    14    16 1   
    20    14    20 1   
    21    17    18 1   
    22    17    19 1   
    23    17    21 1   
    24    20    22 1   
    25    20    24 1   
    26    21    23 1   
    27    21    25 1   
    28    26    28 ar  
    29    26    29 ar  
    30    26    37 1   
    31    27    30 ar  
    32    27    31 ar  
    33    27    38 1   
    34    28    31 ar  
    35    28    34 1   
    36    29    30 ar  
    37    29    32 1   
    38    31    33 1   
    39    34    35 1   
    40    34    36 1   
    41    34    55 1   
    42    37    39 1   
    43    38    42 1   
    44    39    40 1   
    45    39    41 1   
    46    39    45 1   
    47    42    43 1   
    48    42    44 1   
    49    42    46 1   
    50    45    47 1   
    51    45    49 1   
    52    46    48 1   
    53    46    50 1   
    54    51    53 ar  
    55    51    54 ar  
    56    51    62 1   
    57    52    55 ar  
    58    52    56 ar  
    59    52    63 1   
    60    53    56 ar  
    61    53    59 1   
    62    54    55 ar  
    63    54    57 1   
    64    56    58 1   
    65    59    60 1   
    66    59    61 1   
    67    59    80 1   
    68    62    64 1   
    69    63    67 1   
    70    64    65 1   
    71    64    66 1   
    72    64    70 1   
    73    67    68 1   
    74    67    69 1   
    75    67    71 1   
    76    70    72 1   
    77    70    74 1   
    78    71    73 1   
    79    71    75 1   
    80    76    78 ar  
    81    76    79 ar  
    82    76    87 1   
    83    77    80 ar  
    84    77    81 ar  
    85    77    88 1   
    86    78    81 ar  
    87    78    84 1   
    88    79    80 ar  
    89    79    82 1   
    90    81    83 1   
    91    84    85 1   
    92    84    86 1   
    93    84   105 1   
    94    87    89 1   
    95    88    92 1   
    96    89    90 1   
    97    89    91 1   
    98    89    95 1   
    99    92    93 1   
   100    92    94 1   
   101    92    96 1   
   102    95    97 1   
   103    95    99 1   
   104    96    98 1   
   105    96   100 1   
   106   101   103 ar  
   107   101   104 ar  
   108   101   112 1   
   109   102   105 ar  
   110   102   106 ar  
   111   102   113 1   
   112   103   106 ar  
   113   103   109 1   
   114   104   105 ar  
   115   104   107 1   
   116   106   108 1   
   117   109   110 1   
   118   109   111 1   
   119   109   130 1   
   120   112   114 1   
   121   113   117 1   
   122   114   115 1   
   123   114   116 1   
   124   114   120 1   
   125   117   118 1   
   126   117   119 1   
   127   117   121 1   
   128   120   122 1   
   129   120   124 1   
   130   121   123 1   
   131   121   125 1   
   132   126   128 ar  
   133   126   129 ar  
   134   126   137 1   
   135   127   130 ar  
   136   127   131 ar  
   137   127   138 1   
   138   128   131 ar  
   139   128   134 1   
   140   129   130 ar  
   141   129   132 1   
   142   131   133 1   
   143   134   135 1   
   144   134   136 1   
   145   137   139 1   
   146   138   142 1   
   147   139   140 1   
   148   139   141 1   
   149   139   145 1   
   150   142   143 1   
   151   142   144 1   
   152   142   146 1   
   153   145   147 1   
   154   145   149 1   
   155   146   148 1   
   156   146   150 1   
@<TRIPOS>SUBSTRUCTURE
     1 WP6         1 TEMP              0 ****  ****    0 ROOT
