@<TRIPOS>MOLECULE
MG0
  147   154     1     0     0
SMALL
bcc


@<TRIPOS>ATOM
      1 C1           0.9030     6.1040     0.0540 c3         1 MG0       0.307757
      2 O1          -0.0820     5.1070    -0.1310 os         1 MG0      -0.446886
      3 C2           1.8040     6.1350    -1.1880 c3         1 MG0       0.086243
      4 O2           1.1270     6.4290    -2.3930 oh         1 MG0      -0.596657
      5 C3           2.5590     4.8070    -1.2990 c3         1 MG0       0.100100
      6 O3           3.4510     4.8460    -2.4100 oh         1 MG0      -0.611229
      7 C4           3.3580     4.5510    -0.0320 c3         1 MG0       0.129957
      8 C5           2.4430     4.6190     1.2040 c3         1 MG0       0.089243
      9 O4           1.6810     5.8450     1.2080 os         1 MG0      -0.433600
     10 C6           3.2260     4.6410     2.5150 c3         1 MG0       0.128829
     11 O5           4.0740     5.7750     2.5990 oh         1 MG0      -0.599514
     12 H1           0.4360     7.0780     0.2290 h2         1 MG0       0.111986
     13 H2           2.5400     6.9360    -1.0480 h1         1 MG0       0.097986
     14 H3           0.2470     5.9920    -2.3990 ho         1 MG0       0.435857
     15 H4           1.8320     3.9920    -1.4300 h1         1 MG0       0.068129
     16 H5           2.9470     5.2520    -3.1380 ho         1 MG0       0.428143
     17 H6           4.1440     5.3100     0.0660 h1         1 MG0       0.085414
     18 H7           1.7620     3.7580     1.1890 h1         1 MG0       0.074843
     19 H8           2.5140     4.6090     3.3540 h1         1 MG0       0.064700
     20 H9           3.8710     3.7600     2.5730 h1         1 MG0       0.064700
     21 H10          3.4950     6.5490     2.4920 ho         1 MG0       0.414286
     22 C7          -4.2100     4.5130     0.0470 c3         1 MG0       0.307757
     23 O6          -4.0450     3.1210    -0.1350 os         1 MG0      -0.446886
     24 C8          -3.6690     5.2340    -1.1950 c3         1 MG0       0.086243
     25 O7          -4.3190     4.8850    -2.4000 oh         1 MG0      -0.596657
     26 C9          -2.1600     4.9950    -1.3020 c3         1 MG0       0.100100
     27 O8          -1.6320     5.7160    -2.4120 oh         1 MG0      -0.611229
     28 C10         -1.4650     5.4630    -0.0330 c3         1 MG0       0.129957
     29 C11         -2.0920     4.7910     1.2020 c3         1 MG0       0.089243
     30 O9          -3.5260     4.9610     1.2020 os         1 MG0      -0.433600
     31 C12         -1.6240     5.4190     2.5130 c3         1 MG0       0.128829
     32 O10         -1.9790     6.7900     2.5930 oh         1 MG0      -0.599514
     33 H11         -5.2630     4.7560     0.2190 h2         1 MG0       0.111986
     34 H12         -3.8380     6.3090    -1.0580 h1         1 MG0       0.097986
     35 H13         -4.5250     3.9240    -2.4050 ho         1 MG0       0.435857
     36 H14         -1.9760     3.9190    -1.4320 h1         1 MG0       0.068129
     37 H15         -2.2620     5.5750    -3.1420 ho         1 MG0       0.428143
     38 H16         -1.5680     6.5500     0.0620 h1         1 MG0       0.085414
     39 H17         -1.8450     3.7220     1.1890 h1         1 MG0       0.074843
     40 H18         -2.0470     4.8450     3.3520 h1         1 MG0       0.064700
     41 H19         -0.5330     5.3720     2.5750 h1         1 MG0       0.064700
     42 H20         -2.9440     6.8210     2.4830 ho         1 MG0       0.414286
     43 C13         -6.1550    -0.4780     0.0430 c3         1 MG0       0.307757
     44 O11         -4.9630    -1.2170    -0.1360 os         1 MG0      -0.446886
     45 C14         -6.3790     0.3940    -1.2000 c3         1 MG0       0.086243
     46 O12         -6.5090    -0.3330    -2.4050 oh         1 MG0      -0.596657
     47 C15         -5.2510     1.4240    -1.3070 c3         1 MG0       0.100100
     48 O13         -5.4820     2.2850    -2.4180 oh         1 MG0      -0.611229
     49 C16         -5.1850     2.2610    -0.0390 c3         1 MG0       0.129957
     50 C17         -5.0540     1.3540     1.1980 c3         1 MG0       0.089243
     51 O14         -6.0800     0.3380     1.1980 os         1 MG0      -0.433600
     52 C18         -5.2540     2.1130     2.5080 c3         1 MG0       0.128829
     53 O15         -6.5490     2.6880     2.5850 oh         1 MG0      -0.599514
     54 H21         -7.0010    -1.1490     0.2140 h2         1 MG0       0.111986
     55 H22         -7.3240     0.9330    -1.0650 h1         1 MG0       0.097986
     56 H23         -5.8900    -1.0960    -2.4070 ho         1 MG0       0.435857
     57 H24         -4.2950     0.8960    -1.4340 h1         1 MG0       0.068129
     58 H25         -5.7620     1.7030    -3.1480 ho         1 MG0       0.428143
     59 H26         -6.1000     2.8580     0.0540 h1         1 MG0       0.085414
     60 H27         -4.0630     0.8800     1.1870 h1         1 MG0       0.074843
     61 H28         -5.0690     1.4260     3.3470 h1         1 MG0       0.064700
     62 H29         -4.5390     2.9370     2.5690 h1         1 MG0       0.064700
     63 H30         -7.1740     1.9520     2.4760 ho         1 MG0       0.414286
     64 C19         -3.4630    -5.1090     0.0510 c3         1 MG0       0.307757
     65 O16         -2.1430    -4.6380    -0.1320 os         1 MG0      -0.446886
     66 C20         -4.2870    -4.7440    -1.1920 c3         1 MG0       0.086243
     67 O17         -3.8020    -5.3030    -2.3960 oh         1 MG0      -0.596657
     68 C21         -4.3910    -3.2210    -1.3020 c3         1 MG0       0.100100
     69 O18         -5.2110    -2.8680    -2.4130 oh         1 MG0      -0.611229
     70 C22         -5.0020    -2.6440    -0.0350 c3         1 MG0       0.129957
     71 C23         -4.2080    -3.1030     1.2020 c3         1 MG0       0.089243
     72 O19         -4.0520    -4.5380     1.2050 os         1 MG0      -0.433600
     73 C24         -4.9250    -2.7840     2.5120 c3         1 MG0       0.128829
     74 O20         -6.1800    -3.4390     2.5940 oh         1 MG0      -0.599514
     75 H31         -3.4660    -6.1890     0.2260 h2         1 MG0       0.111986
     76 H32         -5.2980    -5.1480    -1.0530 h1         1 MG0       0.097986
     77 H33         -2.8200    -5.2920    -2.4000 ho         1 MG0       0.435857
     78 H34         -3.3820    -2.8020    -1.4330 h1         1 MG0       0.068129
     79 H35         -4.9320    -3.4520    -3.1420 ho         1 MG0       0.428143
     80 H36         -6.0380    -2.9870     0.0610 h1         1 MG0       0.085414
     81 H37         -3.2200    -2.6230     1.1880 h1         1 MG0       0.074843
     82 H38         -4.2690    -3.0640     3.3510 h1         1 MG0       0.064700
     83 H39         -5.1250    -1.7110     2.5700 h1         1 MG0       0.064700
     84 H40         -5.9920    -4.3870     2.4860 ho         1 MG0       0.414286
     85 C25          1.8350    -5.8910     0.0520 c3         1 MG0       0.307757
     86 O21          2.2900    -4.5660    -0.1330 os         1 MG0      -0.446886
     87 C26          1.0350    -6.3100    -1.1890 c3         1 MG0       0.086243
     88 O22          1.7730    -6.2800    -2.3940 oh         1 MG0      -0.596657
     89 C27         -0.2210    -5.4420    -1.2990 c3         1 MG0       0.100100
     90 O23         -1.0090    -5.8640    -2.4080 oh         1 MG0      -0.611229
     91 C28         -1.0510    -5.5570    -0.0310 c3         1 MG0       0.129957
     92 C29         -0.1950    -5.2210     1.2040 c3         1 MG0       0.089243
     93 O24          1.0230    -5.9950     1.2080 os         1 MG0      -0.433600
     94 C30         -0.8910    -5.5780     2.5160 c3         1 MG0       0.128829
     95 O25         -1.1630    -6.9680     2.6000 oh         1 MG0      -0.599514
     96 H41          2.6780    -6.5660     0.2270 h2         1 MG0       0.111986
     97 H42          0.7210    -7.3510    -1.0490 h1         1 MG0       0.097986
     98 H43          2.3750    -5.5040    -2.4010 ho         1 MG0       0.435857
     99 H44          0.0800    -4.3920    -1.4320 h1         1 MG0       0.068129
    100 H45         -0.3800    -6.0120    -3.1380 ho         1 MG0       0.428143
    101 H46         -1.4290    -6.5820     0.0670 h1         1 MG0       0.085414
    102 H47          0.0450    -4.1490     1.1870 h1         1 MG0       0.074843
    103 H48         -0.2620    -5.2410     3.3540 h1         1 MG0       0.064700
    104 H49         -1.8530    -5.0640     2.5740 h1         1 MG0       0.064700
    105 H50         -0.3070    -7.4140     2.4930 ho         1 MG0       0.414286
    106 C31          5.7520    -2.2400     0.0430 c3         1 MG0       0.307757
    107 O26          4.9990    -1.0570    -0.1370 os         1 MG0      -0.446886
    108 C32          5.5760    -3.1230    -1.2000 c3         1 MG0       0.086243
    109 O27          6.0080    -2.5260    -2.4050 oh         1 MG0      -0.596657
    110 C33          4.1130    -3.5630    -1.3050 c3         1 MG0       0.100100
    111 C34          3.6900    -4.2860    -0.0370 c3         1 MG0       0.129957
    112 C35          3.9660    -3.4100     1.1990 c3         1 MG0       0.089243
    113 O28          5.3310    -2.9410     1.1980 os         1 MG0      -0.433600
    114 C36          3.8170    -4.1790     2.5100 c3         1 MG0       0.128829
    115 O29          4.7330    -5.2590     2.5900 oh         1 MG0      -0.599514
    116 O30          3.9490    -4.4420    -2.4150 oh         1 MG0      -0.611229
    117 H51          6.8060    -2.0020     0.2140 h2         1 MG0       0.111986
    118 H52          6.1950    -4.0190    -1.0630 h1         1 MG0       0.097986
    119 H53          5.7790    -1.5710    -2.4080 ho         1 MG0       0.435857
    120 H54          3.4800    -2.6730    -1.4350 h1         1 MG0       0.068129
    121 H55          4.4540    -4.0400    -3.1460 ho         1 MG0       0.428143
    122 H56          4.2550    -5.2210     0.0580 h1         1 MG0       0.085414
    123 H57          3.2790    -2.5530     1.1870 h1         1 MG0       0.074843
    124 H58          3.9480    -3.4780     3.3490 h1         1 MG0       0.064700
    125 H59          2.8150    -4.6100     2.5720 h1         1 MG0       0.064700
    126 H60          5.6160    -4.8680     2.4800 ho         1 MG0       0.414286
    127 C37          5.3370     3.1000     0.0460 c3         1 MG0       0.307757
    128 O31          3.9430     3.2490    -0.1330 os         1 MG0      -0.446886
    129 C38          5.9180     2.4140    -1.1980 c3         1 MG0       0.086243
    130 O32          5.7200     3.1260    -2.4020 oh         1 MG0      -0.596657
    131 C39          5.3500     0.9960    -1.3060 c3         1 MG0       0.100100
    132 O33          5.9330     0.3220    -2.4170 oh         1 MG0      -0.611229
    133 C40          5.6530     0.2120    -0.0390 c3         1 MG0       0.129957
    134 C41          5.1410     0.9720     1.1990 c3         1 MG0       0.089243
    135 O34          5.6240     2.3320     1.2000 os         1 MG0      -0.433600
    136 C42          5.6520     0.3740     2.5080 c3         1 MG0       0.128829
    137 O35          7.0670     0.4180     2.5860 oh         1 MG0      -0.599514
    138 H61          5.8080     4.0720     0.2190 h2         1 MG0       0.111986
    139 H62          7.0040     2.3390    -1.0620 h1         1 MG0       0.097986
    140 H63          4.8310     3.5440    -2.4030 ho         1 MG0       0.435857
    141 H64          4.2590     1.0560    -1.4330 h1         1 MG0       0.068129
    142 H65          5.9340     0.9680    -3.1460 ho         1 MG0       0.428143
    143 H66          6.7370     0.0710     0.0550 h1         1 MG0       0.085414
    144 H67          4.0430     0.9670     1.1880 h1         1 MG0       0.074843
    145 H68          5.1860     0.9120     3.3480 h1         1 MG0       0.064700
    146 H69          5.3650    -0.6790     2.5690 h1         1 MG0       0.064700
    147 H70          7.3110     1.3520     2.4770 ho         1 MG0       0.414286
@<TRIPOS>BOND
     1     1     2 1   
     2     1     3 1   
     3     1     9 1   
     4     1    12 1   
     5     2    28 1   
     6     3     4 1   
     7     3     5 1   
     8     3    13 1   
     9     4    14 1   
    10     5     6 1   
    11     5     7 1   
    12     5    15 1   
    13     6    16 1   
    14     7     8 1   
    15     7    17 1   
    16     7   128 1   
    17     8     9 1   
    18     8    10 1   
    19     8    18 1   
    20    10    11 1   
    21    10    19 1   
    22    10    20 1   
    23    11    21 1   
    24    22    23 1   
    25    22    24 1   
    26    22    30 1   
    27    22    33 1   
    28    23    49 1   
    29    24    25 1   
    30    24    26 1   
    31    24    34 1   
    32    25    35 1   
    33    26    27 1   
    34    26    28 1   
    35    26    36 1   
    36    27    37 1   
    37    28    29 1   
    38    28    38 1   
    39    29    30 1   
    40    29    31 1   
    41    29    39 1   
    42    31    32 1   
    43    31    40 1   
    44    31    41 1   
    45    32    42 1   
    46    43    44 1   
    47    43    45 1   
    48    43    51 1   
    49    43    54 1   
    50    44    70 1   
    51    45    46 1   
    52    45    47 1   
    53    45    55 1   
    54    46    56 1   
    55    47    48 1   
    56    47    49 1   
    57    47    57 1   
    58    48    58 1   
    59    49    50 1   
    60    49    59 1   
    61    50    51 1   
    62    50    52 1   
    63    50    60 1   
    64    52    53 1   
    65    52    61 1   
    66    52    62 1   
    67    53    63 1   
    68    64    65 1   
    69    64    66 1   
    70    64    72 1   
    71    64    75 1   
    72    65    91 1   
    73    66    67 1   
    74    66    68 1   
    75    66    76 1   
    76    67    77 1   
    77    68    69 1   
    78    68    70 1   
    79    68    78 1   
    80    69    79 1   
    81    70    71 1   
    82    70    80 1   
    83    71    72 1   
    84    71    73 1   
    85    71    81 1   
    86    73    74 1   
    87    73    82 1   
    88    73    83 1   
    89    74    84 1   
    90    85    86 1   
    91    85    87 1   
    92    85    93 1   
    93    85    96 1   
    94    86   111 1   
    95    87    88 1   
    96    87    89 1   
    97    87    97 1   
    98    88    98 1   
    99    89    90 1   
   100    89    91 1   
   101    89    99 1   
   102    90   100 1   
   103    91    92 1   
   104    91   101 1   
   105    92    93 1   
   106    92    94 1   
   107    92   102 1   
   108    94    95 1   
   109    94   103 1   
   110    94   104 1   
   111    95   105 1   
   112   106   107 1   
   113   106   108 1   
   114   106   113 1   
   115   106   117 1   
   116   107   133 1   
   117   108   109 1   
   118   108   110 1   
   119   108   118 1   
   120   109   119 1   
   121   110   111 1   
   122   110   116 1   
   123   110   120 1   
   124   111   112 1   
   125   111   122 1   
   126   112   113 1   
   127   112   114 1   
   128   112   123 1   
   129   114   115 1   
   130   114   124 1   
   131   114   125 1   
   132   115   126 1   
   133   116   121 1   
   134   127   128 1   
   135   127   129 1   
   136   127   135 1   
   137   127   138 1   
   138   129   130 1   
   139   129   131 1   
   140   129   139 1   
   141   130   140 1   
   142   131   132 1   
   143   131   133 1   
   144   131   141 1   
   145   132   142 1   
   146   133   134 1   
   147   133   143 1   
   148   134   135 1   
   149   134   136 1   
   150   134   144 1   
   151   136   137 1   
   152   136   145 1   
   153   136   146 1   
   154   137   147 1   
@<TRIPOS>SUBSTRUCTURE
     1 MG0         1 TEMP              0 ****  ****    0 ROOT
