@<TRIPOS>MOLECULE
CB7
  126   147     1     0     0
SMALL
bcc


@<TRIPOS>ATOM
      1 N1           2.0330    -4.8790    -1.2500 n          1 CB7      -0.495300
      2 N2           1.9630    -4.8570     1.2140 n          1 CB7      -0.495300
      3 N3          -0.1880    -5.1820    -1.2630 n          1 CB7      -0.495300
      4 N4          -0.2270    -5.3310     1.1980 n          1 CB7      -0.495300
      5 N5          -2.5380    -4.5240    -1.2670 n          1 CB7      -0.495300
      6 N6          -2.5820    -4.6660     1.1940 n          1 CB7      -0.495300
      7 N7          -4.2720    -3.1050    -1.2550 n          1 CB7      -0.495300
      8 N8          -4.2110    -3.1260     1.2100 n          1 CB7      -0.495300
      9 N9          -5.2000    -0.8450    -1.1970 n          1 CB7      -0.495300
     10 N10         -5.1810    -0.8850     1.2680 n          1 CB7      -0.495300
     11 N11         -5.1440     1.3960    -1.1880 n          1 CB7      -0.495300
     12 N12         -5.0120     1.3500     1.2730 n          1 CB7      -0.495300
     13 N13         -3.9820     3.5480    -1.2100 n          1 CB7      -0.495300
     14 N14         -3.8420     3.4900     1.2510 n          1 CB7      -0.495300
     15 N15         -2.1030     4.7700    -1.2290 n          1 CB7      -0.495300
     16 N16         -2.0870     4.8840     1.2340 n          1 CB7      -0.495300
     17 N17          0.2980     5.2100    -1.2760 n          1 CB7      -0.495300
     18 N18          0.3240     5.2910     1.1870 n          1 CB7      -0.495300
     19 N19          2.4540     4.5970    -1.2750 n          1 CB7      -0.495300
     20 N20          2.4840     4.6920     1.1880 n          1 CB7      -0.495300
     21 N21          4.2800     2.9780    -1.2350 n          1 CB7      -0.495300
     22 N22          4.3250     3.0840     1.2280 n          1 CB7      -0.495300
     23 N23          5.2410     0.9530    -1.2120 n          1 CB7      -0.495300
     24 N24          5.1040     0.9830     1.2500 n          1 CB7      -0.495300
     25 N25          5.1160    -1.4900    -1.1880 n          1 CB7      -0.495300
     26 N26          4.9840    -1.4550     1.2730 n          1 CB7      -0.495300
     27 N27          4.0040    -3.4360    -1.1950 n          1 CB7      -0.495300
     28 N28          3.9570    -3.4460     1.2700 n          1 CB7      -0.495300
     29 C1           0.8800    -4.6840    -2.0060 c          1 CB7       0.805500
     30 C2           0.7960    -4.7920     1.9730 c          1 CB7       0.805500
     31 C3           1.7850    -5.5930    -0.0200 c3         1 CB7       0.236100
     32 H1           2.3860    -6.5160     0.0050 h2         1 CB7       0.074700
     33 C4           0.2400    -5.8640    -0.0600 c3         1 CB7       0.236100
     34 H2          -0.0100    -6.9350    -0.1280 h2         1 CB7       0.074700
     35 C5          -1.4970    -5.3340    -1.8580 c3         1 CB7       0.284400
     36 H3          -1.4080    -5.0230    -2.9020 h2         1 CB7       0.084700
     37 H4          -1.7930    -6.3940    -1.8070 h2         1 CB7       0.084700
     38 C6          -1.5550    -5.5280     1.7340 c3         1 CB7       0.284400
     39 H5          -1.4970    -5.3170     2.8050 h2         1 CB7       0.084700
     40 H6          -1.8500    -6.5760     1.5740 h2         1 CB7       0.084700
     41 C7          -3.1860    -3.5400    -2.0090 c          1 CB7       0.805500
     42 C8          -3.1810    -3.6770     1.9700 c          1 CB7       0.805500
     43 C9          -3.2590    -4.8820    -0.0640 c3         1 CB7       0.236100
     44 H7          -3.6030    -5.9260    -0.1290 h2         1 CB7       0.074700
     45 C10         -4.4370    -3.8450    -0.0260 c3         1 CB7       0.236100
     46 H8          -5.4310    -4.3200    -0.0060 h2         1 CB7       0.074700
     47 C11         -5.2320    -2.1660    -1.7870 c3         1 CB7       0.284400
     48 H9          -6.2420    -2.5880    -1.6700 h2         1 CB7       0.084700
     49 H10         -5.0000    -2.0420    -2.8470 h2         1 CB7       0.084700
     50 C12         -5.1700    -2.2240     1.8090 c3         1 CB7       0.284400
     51 H11         -6.1790    -2.6550     1.7110 h2         1 CB7       0.084700
     52 H12         -4.9040    -2.1370     2.8650 h2         1 CB7       0.084700
     53 C13         -4.8730     0.2720    -1.9640 c          1 CB7       0.805500
     54 C14         -4.7400     0.2030     2.0160 c          1 CB7       0.805500
     55 C15         -5.8500    -0.4960     0.0480 c3         1 CB7       0.236100
     56 H13         -6.8840    -0.8780     0.0510 h2         1 CB7       0.074700
     57 C16         -5.7710     1.0710     0.0730 c3         1 CB7       0.236100
     58 H14         -6.7590     1.5540     0.1340 h2         1 CB7       0.074700
     59 C17         -5.0490     2.7290    -1.7390 c3         1 CB7       0.284400
     60 H15         -6.0060     3.2490    -1.5810 h2         1 CB7       0.084700
     61 H16         -4.8580     2.6150    -2.8080 h2         1 CB7       0.084700
     62 C18         -4.8650     2.6650     1.8540 c3         1 CB7       0.284400
     63 H17         -4.5790     2.5200     2.8990 h2         1 CB7       0.084700
     64 H18         -5.8310     3.1910     1.7990 h2         1 CB7       0.084700
     65 C19         -2.8730     3.8860    -1.9820 c          1 CB7       0.805500
     66 C20         -2.7480     3.9260     1.9970 c          1 CB7       0.805500
     67 C21         -4.0350     4.2650     0.0430 c3         1 CB7       0.236100
     68 H19         -4.9760     4.8340     0.1090 h2         1 CB7       0.074700
     69 C22         -2.7620     5.1810    -0.0070 c3         1 CB7       0.236100
     70 H20         -3.0040     6.2550    -0.0540 h2         1 CB7       0.074700
     71 C23         -1.0040     5.4900    -1.8350 c3         1 CB7       0.284400
     72 H21         -0.9700     5.1890    -2.8850 h2         1 CB7       0.084700
     73 H22         -1.1980     6.5720    -1.7610 h2         1 CB7       0.084700
     74 C24         -0.9620     5.6240     1.7590 c3         1 CB7       0.284400
     75 H23         -1.1500     6.6990     1.6190 h2         1 CB7       0.084700
     76 H24         -0.9010     5.3920     2.8250 h2         1 CB7       0.084700
     77 C25          1.2780     4.5560    -2.0190 c          1 CB7       0.805500
     78 C26          1.3250     4.7080     1.9610 c          1 CB7       0.805500
     79 C27          0.8170     5.8110    -0.0680 c3         1 CB7       0.236100
     80 H25          0.6740     6.9030    -0.1030 h2         1 CB7       0.074700
     81 C28          2.3290     5.3870    -0.0700 c3         1 CB7       0.236100
     82 H26          3.0190     6.2450    -0.1120 h2         1 CB7       0.074700
     83 C29          3.7110     4.1620    -1.8390 c3         1 CB7       0.284400
     84 H27          3.5230     3.9220    -2.8880 h2         1 CB7       0.084700
     85 H28          4.4380     4.9870    -1.7680 h2         1 CB7       0.084700
     86 C30          3.7560     4.3030     1.7560 c3         1 CB7       0.284400
     87 H29          4.4770     5.1220     1.6120 h2         1 CB7       0.084700
     88 H30          3.5860     4.1380     2.8220 h2         1 CB7       0.084700
     89 C31          4.4720     1.8190    -1.9840 c          1 CB7       0.805500
     90 C32          4.3970     1.9240     1.9950 c          1 CB7       0.805500
     91 C33          5.0570     2.9850    -0.0120 c3         1 CB7       0.236100
     92 H31          5.8220     3.7760    -0.0600 h2         1 CB7       0.074700
     93 C34          5.6660     1.5400     0.0370 c3         1 CB7       0.236100
     94 H32          6.7660     1.5360     0.0980 h2         1 CB7       0.074700
     95 C35          5.7260    -0.3010    -1.7410 c3         1 CB7       0.284400
     96 H33          5.5020    -0.3010    -2.8100 h2         1 CB7       0.084700
     97 H34          6.8150    -0.3540    -1.5860 h2         1 CB7       0.084700
     98 C36          5.5460    -0.2560     1.8520 c3         1 CB7       0.284400
     99 H35          5.2300    -0.2290     2.8980 h2         1 CB7       0.084700
    100 H36          6.6450    -0.3120     1.7940 h2         1 CB7       0.084700
    101 C37          4.3030    -2.3120    -1.9630 c          1 CB7       0.805500
    102 C38          4.1510    -2.2880     2.0160 c          1 CB7       0.805500
    103 C39          5.4840    -2.0900     0.0730 c3         1 CB7       0.236100
    104 H37          6.5800    -2.1930     0.1330 h2         1 CB7       0.074700
    105 C40          4.7350    -3.4700     0.0530 c3         1 CB7       0.236100
    106 H38          5.4190    -4.3340     0.0620 h2         1 CB7       0.074700
    107 C41          3.3430    -4.5810    -1.7810 c3         1 CB7       0.284400
    108 H39          3.2120    -4.3600    -2.8430 h2         1 CB7       0.084700
    109 H40          3.9840    -5.4680    -1.6590 h2         1 CB7       0.084700
    110 C42          3.2510    -4.5830     1.8150 c3         1 CB7       0.284400
    111 H41          3.8890    -5.4750     1.7210 h2         1 CB7       0.084700
    112 H42          3.0660    -4.3660     2.8700 h2         1 CB7       0.084700
    113 O1           0.7000    -4.3940     3.1140 o          1 CB7      -0.579500
    114 O2           0.8250    -4.2190    -3.1250 o          1 CB7      -0.579500
    115 O3          -2.8940    -3.1710    -3.1270 o          1 CB7      -0.579500
    116 O4          -2.8940    -3.3890     3.1130 o          1 CB7      -0.579500
    117 O5           3.7210    -2.0680     3.1290 o          1 CB7      -0.579500
    118 O6          -4.4800     0.2670    -3.1110 o          1 CB7      -0.579500
    119 O7          -4.2610     0.1640     3.1300 o          1 CB7      -0.579500
    120 O8          -2.6500     3.5220    -3.1170 o          1 CB7      -0.579500
    121 O9          -2.4580     3.5770     3.1220 o          1 CB7      -0.579500
    122 O10          1.1450     4.0880    -3.1300 o          1 CB7      -0.579500
    123 O11          1.2220     4.3360     3.1100 o          1 CB7      -0.579500
    124 O12          4.0880     1.6220    -3.1180 o          1 CB7      -0.579500
    125 O13          3.9710     1.7790     3.1210 o          1 CB7      -0.579500
    126 O14          3.9650    -2.1140    -3.1110 o          1 CB7      -0.579500
@<TRIPOS>BOND
     1     1    29 1   
     2     1    31 1   
     3     1   107 1   
     4     2    30 1   
     5     2    31 1   
     6     2   110 1   
     7     3    29 1   
     8     3    33 1   
     9     3    35 1   
    10     4    30 1   
    11     4    33 1   
    12     4    38 1   
    13     5    35 1   
    14     5    41 1   
    15     5    43 1   
    16     6    38 1   
    17     6    42 1   
    18     6    43 1   
    19     7    41 1   
    20     7    45 1   
    21     7    47 1   
    22     8    42 1   
    23     8    45 1   
    24     8    50 1   
    25     9    47 1   
    26     9    53 1   
    27     9    55 1   
    28    10    50 1   
    29    10    54 1   
    30    10    55 1   
    31    11    53 1   
    32    11    57 1   
    33    11    59 1   
    34    12    54 1   
    35    12    57 1   
    36    12    62 1   
    37    13    59 1   
    38    13    65 1   
    39    13    67 1   
    40    14    62 1   
    41    14    66 1   
    42    14    67 1   
    43    15    65 1   
    44    15    69 1   
    45    15    71 1   
    46    16    66 1   
    47    16    69 1   
    48    16    74 1   
    49    17    71 1   
    50    17    77 1   
    51    17    79 1   
    52    18    74 1   
    53    18    78 1   
    54    18    79 1   
    55    19    77 1   
    56    19    81 1   
    57    19    83 1   
    58    20    78 1   
    59    20    81 1   
    60    20    86 1   
    61    21    83 1   
    62    21    89 1   
    63    21    91 1   
    64    22    86 1   
    65    22    90 1   
    66    22    91 1   
    67    23    89 1   
    68    23    93 1   
    69    23    95 1   
    70    24    90 1   
    71    24    93 1   
    72    24    98 1   
    73    25    95 1   
    74    25   101 1   
    75    25   103 1   
    76    26    98 1   
    77    26   102 1   
    78    26   103 1   
    79    27   101 1   
    80    27   105 1   
    81    27   107 1   
    82    28   102 1   
    83    28   105 1   
    84    28   110 1   
    85    29   114 2   
    86    30   113 2   
    87    31    32 1   
    88    31    33 1   
    89    33    34 1   
    90    35    36 1   
    91    35    37 1   
    92    38    39 1   
    93    38    40 1   
    94    41   115 2   
    95    42   116 2   
    96    43    44 1   
    97    43    45 1   
    98    45    46 1   
    99    47    48 1   
   100    47    49 1   
   101    50    51 1   
   102    50    52 1   
   103    53   118 2   
   104    54   119 2   
   105    55    56 1   
   106    55    57 1   
   107    57    58 1   
   108    59    60 1   
   109    59    61 1   
   110    62    63 1   
   111    62    64 1   
   112    65   120 2   
   113    66   121 2   
   114    67    68 1   
   115    67    69 1   
   116    69    70 1   
   117    71    72 1   
   118    71    73 1   
   119    74    75 1   
   120    74    76 1   
   121    77   122 2   
   122    78   123 2   
   123    79    80 1   
   124    79    81 1   
   125    81    82 1   
   126    83    84 1   
   127    83    85 1   
   128    86    87 1   
   129    86    88 1   
   130    89   124 2   
   131    90   125 2   
   132    91    92 1   
   133    91    93 1   
   134    93    94 1   
   135    95    96 1   
   136    95    97 1   
   137    98    99 1   
   138    98   100 1   
   139   101   126 2   
   140   102   117 2   
   141   103   104 1   
   142   103   105 1   
   143   105   106 1   
   144   107   108 1   
   145   107   109 1   
   146   110   111 1   
   147   110   112 1   
@<TRIPOS>SUBSTRUCTURE
     1 CB7         1 TEMP              0 ****  ****    0 ROOT
