@<TRIPOS>MOLECULE
CB8
  144   168     1     0     0
SMALL
bcc


@<TRIPOS>ATOM
      1 O1          -4.9960    -1.1270     3.1320 o          1 CB8      -0.580500
      2 C1          -5.4220    -1.2260     2.0010 c          1 CB8       0.805500
      3 N1          -5.9930    -0.2080     1.2410 n          1 CB8      -0.490519
      4 C2          -6.5860    -0.6910     0.0140 c3         1 CB8       0.233100
      5 C3          -6.2830     1.0830     1.8240 c3         1 CB8       0.281400
      6 N2          -5.5800     2.1990     1.2310 n          1 CB8      -0.490519
      7 C4          -5.9830     2.8420    -0.0000 c3         1 CB8       0.233100
      8 C5          -4.7180     2.9860     1.9910 c          1 CB8       0.805500
      9 O2          -4.3560     2.7650     3.1280 o          1 CB8      -0.580500
     10 N3          -4.3990     4.1050     1.2260 n          1 CB8      -0.490519
     11 C6          -5.1460     4.1680    -0.0100 c3         1 CB8       0.233100
     12 C7          -3.6960     5.2280     1.8040 c3         1 CB8       0.281400
     13 N4          -2.4050     5.5140     1.2210 n          1 CB8      -0.490519
     14 C8          -2.2200     6.2380    -0.0170 c3         1 CB8       0.233100
     15 C9          -1.2430     5.4540     1.9870 c          1 CB8       0.805500
     16 O3          -1.1520     5.0460     3.1260 o          1 CB8      -0.580500
     17 N5          -0.2160     6.0050     1.2230 n          1 CB8      -0.490519
     18 C10         -0.6910     6.5860    -0.0130 c3         1 CB8       0.233100
     19 C11          1.0700     6.3020     1.8110 c3         1 CB8       0.281400
     20 N6           2.1910     5.5960     1.2330 n          1 CB8      -0.490519
     21 C12          2.8420     5.9820     0.0010 c3         1 CB8       0.233100
     22 C13          2.9600     4.7200     1.9960 c          1 CB8       0.805500
     23 O4           2.7240     4.3580     3.1300 o          1 CB8      -0.580500
     24 N7           4.0800     4.3860     1.2380 n          1 CB8      -0.490519
     25 C14          4.1680     5.1460     0.0110 c3         1 CB8       0.233100
     26 C15          5.1930     3.6800     1.8310 c3         1 CB8       0.281400
     27 N8           5.4900     2.3930     1.2420 n          1 CB8      -0.490519
     28 C16          6.2390     2.2200     0.0170 c3         1 CB8       0.233100
     29 C17          5.4230     1.2270     2.0010 c          1 CB8       0.805500
     30 O5           4.9970     1.1280     3.1320 o          1 CB8      -0.580500
     31 N9           5.9930     0.2080     1.2410 n          1 CB8      -0.490519
     32 C18          6.5860     0.6910     0.0140 c3         1 CB8       0.233100
     33 C19          6.2820    -1.0830     1.8230 c3         1 CB8       0.281400
     34 N10          5.5800    -2.1980     1.2300 n          1 CB8      -0.490519
     35 C20          5.9830    -2.8420    -0.0010 c3         1 CB8       0.233100
     36 C21          4.7180    -2.9860     1.9900 c          1 CB8       0.805500
     37 O6           4.3550    -2.7650     3.1270 o          1 CB8      -0.580500
     38 N11          4.3990    -4.1050     1.2250 n          1 CB8      -0.490519
     39 C22          5.1460    -4.1680    -0.0110 c3         1 CB8       0.233100
     40 C23          3.6960    -5.2280     1.8030 c3         1 CB8       0.281400
     41 N12          2.4040    -5.5140     1.2200 n          1 CB8      -0.490519
     42 C24          2.2200    -6.2380    -0.0180 c3         1 CB8       0.233100
     43 C25          1.2420    -5.4550     1.9860 c          1 CB8       0.805500
     44 O7           1.1520    -5.0480     3.1250 o          1 CB8      -0.580500
     45 N13          0.2160    -6.0060     1.2220 n          1 CB8      -0.490519
     46 C26          0.6910    -6.5860    -0.0150 c3         1 CB8       0.233100
     47 C27         -1.0700    -6.3040     1.8100 c3         1 CB8       0.281400
     48 N14         -2.1910    -5.5980     1.2320 n          1 CB8      -0.490519
     49 C28         -2.8420    -5.9820     0.0000 c3         1 CB8       0.233100
     50 C29         -2.9590    -4.7210     1.9960 c          1 CB8       0.805500
     51 O8          -2.7230    -4.3600     3.1300 o          1 CB8      -0.580500
     52 N15         -4.0790    -4.3860     1.2380 n          1 CB8      -0.490519
     53 C30         -5.1920    -3.6800     1.8310 c3         1 CB8       0.281400
     54 C31         -4.1680    -5.1460     0.0100 c3         1 CB8       0.233100
     55 N16         -5.4880    -2.3930     1.2420 n          1 CB8      -0.490519
     56 C32         -6.2390    -2.2200     0.0180 c3         1 CB8       0.233100
     57 N17         -5.5160    -2.4050    -1.2210 n          1 CB8      -0.490519
     58 C33         -5.2290    -3.6960    -1.8040 c3         1 CB8       0.281400
     59 C34         -5.4550    -1.2430    -1.9860 c          1 CB8       0.805500
     60 O9          -5.0480    -1.1520    -3.1260 o          1 CB8      -0.580500
     61 N18         -6.0060    -0.2160    -1.2220 n          1 CB8      -0.490519
     62 C35         -6.3040     1.0710    -1.8100 c3         1 CB8       0.281400
     63 N19         -5.5970     2.1910    -1.2320 n          1 CB8      -0.490519
     64 C36         -4.7210     2.9590    -1.9950 c          1 CB8       0.805500
     65 O10         -4.3590     2.7230    -3.1290 o          1 CB8      -0.580500
     66 N20         -4.3860     4.0790    -1.2370 n          1 CB8      -0.490519
     67 C37         -3.6800     5.1920    -1.8300 c3         1 CB8       0.281400
     68 N21         -2.3930     5.4890    -1.2420 n          1 CB8      -0.490519
     69 C38         -1.2270     5.4230    -2.0000 c          1 CB8       0.805500
     70 O11         -1.1270     4.9970    -3.1320 o          1 CB8      -0.580500
     71 N22         -0.2080     5.9930    -1.2400 n          1 CB8      -0.490519
     72 C39          1.0830     6.2830    -1.8230 c3         1 CB8       0.281400
     73 N23          2.1990     5.5800    -1.2300 n          1 CB8      -0.490519
     74 C40          2.9860     4.7180    -1.9900 c          1 CB8       0.805500
     75 O12          2.7650     4.3560    -3.1270 o          1 CB8      -0.580500
     76 N24          4.1050     4.3980    -1.2250 n          1 CB8      -0.490519
     77 C41          5.2280     3.6960    -1.8040 c3         1 CB8       0.281400
     78 N25          5.5150     2.4040    -1.2210 n          1 CB8      -0.490519
     79 C42          5.4540     1.2420    -1.9860 c          1 CB8       0.805500
     80 O13          5.0470     1.1520    -3.1260 o          1 CB8      -0.580500
     81 N26          6.0060     0.2160    -1.2230 n          1 CB8      -0.490519
     82 C43          6.3040    -1.0700    -1.8110 c3         1 CB8       0.281400
     83 N27          5.5980    -2.1910    -1.2330 n          1 CB8      -0.490519
     84 C44          4.7210    -2.9590    -1.9960 c          1 CB8       0.805500
     85 O14          4.3600    -2.7240    -3.1300 o          1 CB8      -0.580500
     86 N28          4.3860    -4.0790    -1.2380 n          1 CB8      -0.490519
     87 C45          3.6800    -5.1920    -1.8310 c3         1 CB8       0.281400
     88 N29          2.3940    -5.4890    -1.2430 n          1 CB8      -0.490519
     89 C46          1.2270    -5.4220    -2.0010 c          1 CB8       0.805500
     90 O15          1.1280    -4.9950    -3.1330 o          1 CB8      -0.580500
     91 N30          0.2080    -5.9920    -1.2420 n          1 CB8      -0.490519
     92 C47         -1.0830    -6.2810    -1.8250 c3         1 CB8       0.281400
     93 N31         -2.1980    -5.5790    -1.2310 n          1 CB8      -0.490519
     94 C48         -2.9860    -4.7170    -1.9910 c          1 CB8       0.805500
     95 N32         -4.1060    -4.3980    -1.2250 n          1 CB8      -0.490519
     96 O16         -2.7660    -4.3540    -3.1280 o          1 CB8      -0.580500
     97 H1          -7.6700    -0.4930     0.0190 h2         1 CB8       0.073700
     98 H2          -5.9770     1.0350     2.8720 h2         1 CB8       0.084200
     99 H3          -7.3680     1.2680     1.7590 h2         1 CB8       0.084200
    100 H4          -7.0710     3.0160     0.0070 h2         1 CB8       0.073700
    101 H5          -5.7720     5.0750    -0.0230 h2         1 CB8       0.073700
    102 H6          -3.5230     4.9880     2.8560 h2         1 CB8       0.084200
    103 H7          -4.3310     6.1250     1.7250 h2         1 CB8       0.084200
    104 H8          -2.8670     7.1300    -0.0290 h2         1 CB8       0.073700
    105 H9          -0.4930     7.6700    -0.0180 h2         1 CB8       0.073700
    106 H10          1.0160     6.0070     2.8620 h2         1 CB8       0.084200
    107 H11          1.2550     7.3860     1.7370 h2         1 CB8       0.084200
    108 H12          3.0160     7.0700    -0.0050 h2         1 CB8       0.073700
    109 H13          5.0750     5.7720     0.0230 h2         1 CB8       0.073700
    110 H14          6.0920     4.3160     1.7710 h2         1 CB8       0.084200
    111 H15          4.9350     3.5000     2.8770 h2         1 CB8       0.084200
    112 H16          7.1310     2.8670     0.0290 h2         1 CB8       0.073700
    113 H17          7.6700     0.4930     0.0190 h2         1 CB8       0.073700
    114 H18          7.3670    -1.2690     1.7590 h2         1 CB8       0.084200
    115 H19          5.9760    -1.0350     2.8710 h2         1 CB8       0.084200
    116 H20          7.0710    -3.0160     0.0060 h2         1 CB8       0.073700
    117 H21          5.7720    -5.0750    -0.0240 h2         1 CB8       0.073700
    118 H22          4.3300    -6.1260     1.7230 h2         1 CB8       0.084200
    119 H23          3.5230    -4.9880     2.8550 h2         1 CB8       0.084200
    120 H24          2.8670    -7.1300    -0.0300 h2         1 CB8       0.073700
    121 H25          0.4930    -7.6700    -0.0210 h2         1 CB8       0.073700
    122 H26         -1.2550    -7.3880     1.7340 h2         1 CB8       0.084200
    123 H27         -1.0150    -6.0090     2.8600 h2         1 CB8       0.084200
    124 H28         -3.0160    -7.0700    -0.0080 h2         1 CB8       0.073700
    125 H29         -4.9330    -3.4990     2.8770 h2         1 CB8       0.084200
    126 H30         -6.0910    -4.3150     1.7720 h2         1 CB8       0.084200
    127 H31         -5.0750    -5.7720     0.0230 h2         1 CB8       0.073700
    128 H32         -7.1300    -2.8670     0.0310 h2         1 CB8       0.073700
    129 H33         -6.1260    -4.3310    -1.7240 h2         1 CB8       0.084200
    130 H34         -4.9890    -3.5240    -2.8550 h2         1 CB8       0.084200
    131 H35         -7.3880     1.2560    -1.7350 h2         1 CB8       0.084200
    132 H36         -6.0080     1.0160    -2.8610 h2         1 CB8       0.084200
    133 H37         -4.3160     6.0910    -1.7710 h2         1 CB8       0.084200
    134 H38         -3.4990     4.9340    -2.8760 h2         1 CB8       0.084200
    135 H39          1.2680     7.3680    -1.7580 h2         1 CB8       0.084200
    136 H40          1.0350     5.9770    -2.8710 h2         1 CB8       0.084200
    137 H41          4.9870     3.5230    -2.8550 h2         1 CB8       0.084200
    138 H42          6.1250     4.3310    -1.7240 h2         1 CB8       0.084200
    139 H43          6.0090    -1.0150    -2.8610 h2         1 CB8       0.084200
    140 H44          7.3880    -1.2550    -1.7360 h2         1 CB8       0.084200
    141 H45          3.5000    -4.9340    -2.8770 h2         1 CB8       0.084200
    142 H46          4.3160    -6.0910    -1.7720 h2         1 CB8       0.084200
    143 H47         -1.0350    -5.9740    -2.8720 h2         1 CB8       0.084200
    144 H48         -1.2680    -7.3660    -1.7600 h2         1 CB8       0.084200
@<TRIPOS>BOND
     1     1     2 2   
     2     2     3 1   
     3     2    55 1   
     4     3     4 1   
     5     3     5 1   
     6     4    56 1   
     7     4    61 1   
     8     4    97 1   
     9     5     6 1   
    10     5    98 1   
    11     5    99 1   
    12     6     7 1   
    13     6     8 1   
    14     7    11 1   
    15     7    63 1   
    16     7   100 1   
    17     8     9 2   
    18     8    10 1   
    19    10    11 1   
    20    10    12 1   
    21    11    66 1   
    22    11   101 1   
    23    12    13 1   
    24    12   102 1   
    25    12   103 1   
    26    13    14 1   
    27    13    15 1   
    28    14    18 1   
    29    14    68 1   
    30    14   104 1   
    31    15    16 2   
    32    15    17 1   
    33    17    18 1   
    34    17    19 1   
    35    18    71 1   
    36    18   105 1   
    37    19    20 1   
    38    19   106 1   
    39    19   107 1   
    40    20    21 1   
    41    20    22 1   
    42    21    25 1   
    43    21    73 1   
    44    21   108 1   
    45    22    23 2   
    46    22    24 1   
    47    24    25 1   
    48    24    26 1   
    49    25    76 1   
    50    25   109 1   
    51    26    27 1   
    52    26   110 1   
    53    26   111 1   
    54    27    28 1   
    55    27    29 1   
    56    28    32 1   
    57    28    78 1   
    58    28   112 1   
    59    29    30 2   
    60    29    31 1   
    61    31    32 1   
    62    31    33 1   
    63    32    81 1   
    64    32   113 1   
    65    33    34 1   
    66    33   114 1   
    67    33   115 1   
    68    34    35 1   
    69    34    36 1   
    70    35    39 1   
    71    35    83 1   
    72    35   116 1   
    73    36    37 2   
    74    36    38 1   
    75    38    39 1   
    76    38    40 1   
    77    39    86 1   
    78    39   117 1   
    79    40    41 1   
    80    40   118 1   
    81    40   119 1   
    82    41    42 1   
    83    41    43 1   
    84    42    46 1   
    85    42    88 1   
    86    42   120 1   
    87    43    44 2   
    88    43    45 1   
    89    45    46 1   
    90    45    47 1   
    91    46    91 1   
    92    46   121 1   
    93    47    48 1   
    94    47   122 1   
    95    47   123 1   
    96    48    49 1   
    97    48    50 1   
    98    49    54 1   
    99    49    93 1   
   100    49   124 1   
   101    50    51 2   
   102    50    52 1   
   103    52    53 1   
   104    52    54 1   
   105    53    55 1   
   106    53   125 1   
   107    53   126 1   
   108    54    95 1   
   109    54   127 1   
   110    55    56 1   
   111    56    57 1   
   112    56   128 1   
   113    57    58 1   
   114    57    59 1   
   115    58    95 1   
   116    58   129 1   
   117    58   130 1   
   118    59    60 2   
   119    59    61 1   
   120    61    62 1   
   121    62    63 1   
   122    62   131 1   
   123    62   132 1   
   124    63    64 1   
   125    64    65 2   
   126    64    66 1   
   127    66    67 1   
   128    67    68 1   
   129    67   133 1   
   130    67   134 1   
   131    68    69 1   
   132    69    70 2   
   133    69    71 1   
   134    71    72 1   
   135    72    73 1   
   136    72   135 1   
   137    72   136 1   
   138    73    74 1   
   139    74    75 2   
   140    74    76 1   
   141    76    77 1   
   142    77    78 1   
   143    77   137 1   
   144    77   138 1   
   145    78    79 1   
   146    79    80 2   
   147    79    81 1   
   148    81    82 1   
   149    82    83 1   
   150    82   139 1   
   151    82   140 1   
   152    83    84 1   
   153    84    85 2   
   154    84    86 1   
   155    86    87 1   
   156    87    88 1   
   157    87   141 1   
   158    87   142 1   
   159    88    89 1   
   160    89    90 2   
   161    89    91 1   
   162    91    92 1   
   163    92    93 1   
   164    92   143 1   
   165    92   144 1   
   166    93    94 1   
   167    94    95 1   
   168    94    96 2   
@<TRIPOS>SUBSTRUCTURE
     1 CB8         1 TEMP              0 ****  ****    0 ROOT
