@<TRIPOS>MOLECULE
M99
  189   196     1     0     0
SMALL
bcc


@<TRIPOS>ATOM
      1 C1          -6.1900     1.0870    -0.1590 c3         1 M99       0.300186
      2 C2          -6.2120     1.9580    -1.4250 c3         1 M99       0.100243
      3 C3          -4.8750     2.7120    -1.5320 c3         1 M99       0.098100
      4 C4          -4.6070     3.5090    -0.2400 c3         1 M99       0.102243
      5 C5          -4.7390     2.6080     1.0090 c3         1 M99       0.124386
      6 C6          -4.7140     3.4090     2.3090 c3         1 M99       0.121400
      7 C7          -4.5790    -4.0140     0.0630 c3         1 M99       0.300186
      8 C8          -5.4290    -3.5650    -1.1400 c3         1 M99       0.100243
      9 C9          -5.2290    -2.0560    -1.3690 c3         1 M99       0.098100
     10 C10         -5.5050    -1.2720    -0.0700 c3         1 M99       0.102243
     11 C11         -4.6240    -1.8350     1.0620 c3         1 M99       0.124386
     12 C12         -4.8810    -1.2010     2.4170 c3         1 M99       0.121400
     13 C13          0.2920    -6.1380    -0.1250 c3         1 M99       0.300186
     14 C14         -0.6070    -6.4060    -1.3460 c3         1 M99       0.100243
     15 C15         -1.6290    -5.2640    -1.4930 c3         1 M99       0.098100
     16 C16         -2.3800    -5.0640    -0.1660 c3         1 M99       0.102243
     17 C17         -1.3880    -4.8530     0.9930 c3         1 M99       0.124386
     18 C18         -2.0630    -4.7370     2.3500 c3         1 M99       0.121400
     19 C19          5.0020    -3.6140    -0.2610 c3         1 M99       0.300186
     20 C20          4.6400    -4.4300    -1.5140 c3         1 M99       0.100243
     21 C21          3.1080    -4.5440    -1.6140 c3         1 M99       0.098100
     22 C22          2.5170    -5.1000    -0.3040 c3         1 M99       0.102243
     23 C23          3.0170    -4.2820     0.9060 c3         1 M99       0.124386
     24 C24          2.6270    -4.8960     2.2400 c3         1 M99       0.121400
     25 C25          5.8230     1.6470    -0.0510 c3         1 M99       0.300186
     26 C26          6.3090     0.9130    -1.3140 c3         1 M99       0.100243
     27 C27          5.4450    -0.3420    -1.5350 c3         1 M99       0.098100
     28 C28          5.4590    -1.2060    -0.2650 c3         1 M99       0.102243
     29 C29          5.0300    -0.3800     0.9620 c3         1 M99       0.124386
     30 C30          5.1480    -1.1510     2.2680 c3         1 M99       0.121400
     31 C31          2.2670     5.6230     0.0380 c3         1 M99       0.300186
     32 C32          3.1850     5.5460    -1.1960 c3         1 M99       0.100243
     33 C33          3.6240     4.0870    -1.4140 c3         1 M99       0.098100
     34 C34          4.2640     3.5420    -0.1280 c3         1 M99       0.102243
     35 C35          3.3190     3.7310     1.0750 c3         1 M99       0.124386
     36 C36          3.9700     3.3450     2.3940 c3         1 M99       0.121400
     37 C37         -3.0580     5.4150    -0.0910 c3         1 M99       0.300186
     38 C38         -2.3700     6.0100    -1.3330 c3         1 M99       0.100243
     39 C39         -0.9570     5.4170    -1.4710 c3         1 M99       0.098100
     40 C40         -0.1800     5.6250    -0.1620 c3         1 M99       0.102243
     41 C41         -0.9730     5.0750     1.0400 c3         1 M99       0.124386
     42 C42         -0.3110     5.3880     2.3730 c3         1 M99       0.121400
     43 O1          -6.5380     1.2180    -2.5740 oh         1 M99      -0.589800
     44 O2          -4.7560     3.5430    -2.6870 os         1 M99      -0.409743
     45 C43         -5.9050     4.2890    -3.0840 c3         1 M99       0.104700
     46 O3          -3.2810     4.0320    -0.3240 os         1 M99      -0.439029
     47 O4          -5.9810     1.8840     0.9870 os         1 M99      -0.425457
     48 O5          -4.7210     2.5810     3.4630 os         1 M99      -0.426314
     49 C44         -5.9960     2.4300     4.0680 c3         1 M99       0.110986
     50 O6          -5.1630    -4.3420    -2.2830 oh         1 M99      -0.589800
     51 O7          -5.9580    -1.5210    -2.4720 os         1 M99      -0.409743
     52 C45         -7.3000    -1.9660    -2.6580 c3         1 M99       0.104700
     53 O8          -5.1870     0.1010    -0.3120 os         1 M99      -0.439029
     54 O9          -4.8710    -3.2410     1.2050 os         1 M99      -0.425457
     55 O10         -3.8430    -1.5980     3.2970 os         1 M99      -0.426314
     56 C46         -3.8800    -0.9040     4.5290 c3         1 M99       0.110986
     57 O11          0.1540    -6.6370    -2.5070 oh         1 M99      -0.589800
     58 O12         -2.5370    -5.4160    -2.5860 os         1 M99      -0.409743
     59 C47         -3.0440    -6.7240    -2.8440 c3         1 M99       0.104700
     60 O13         -3.2180    -3.9150    -0.3100 os         1 M99      -0.439029
     61 O14         -0.4650    -5.9580     1.0480 os         1 M99      -0.425457
     62 O15         -3.0140    -5.7750     2.5070 os         1 M99      -0.426314
     63 C48         -3.7760    -5.6220     3.6900 c3         1 M99       0.110986
     64 O16          5.2380    -3.9020    -2.6730 oh         1 M99      -0.589800
     65 O17          2.6370    -5.2780    -2.7450 os         1 M99      -0.409743
     66 C49          3.3520    -6.4560    -3.1090 c3         1 M99       0.104700
     67 O18          1.0950    -5.0060    -0.4110 os         1 M99      -0.439029
     68 O19          4.4480    -4.1990     0.8960 os         1 M99      -0.425457
     69 O20          2.8890    -3.9540     3.2670 os         1 M99      -0.426314
     70 C50          2.5130    -4.4280     4.5430 c3         1 M99       0.110986
     71 O21          6.3530     1.7710    -2.4290 oh         1 M99      -0.589800
     72 O22          5.7880    -1.1090    -2.6910 os         1 M99      -0.409743
     73 C51          7.1730    -1.2870    -2.9740 c3         1 M99       0.104700
     74 O23          4.5470    -2.2900    -0.4600 os         1 M99      -0.439029
     75 O24          5.8410     0.8020     1.0770 os         1 M99      -0.425457
     76 O25          6.4170    -1.7730     2.3440 os         1 M99      -0.426314
     77 C52          6.5200    -2.6430     3.4560 c3         1 M99       0.110986
     78 O26          2.5800     6.1260    -2.3260 oh         1 M99      -0.589800
     79 O27          4.4690     3.8850    -2.5470 os         1 M99      -0.409743
     80 C53          5.4850     4.8560    -2.7900 c3         1 M99       0.104700
     81 O28          4.5220     2.1490    -0.3160 os         1 M99      -0.439029
     82 O29          2.8960     5.0990     1.1840 os         1 M99      -0.425457
     83 O30          5.2160     4.0010     2.5210 os         1 M99      -0.426314
     84 C54          5.9490     3.5610     3.6480 c3         1 M99       0.110986
     85 O31         -3.1630     5.8570    -2.4850 oh         1 M99      -0.589800
     86 O32         -0.2250     5.8980    -2.6000 os         1 M99      -0.409743
     87 C55         -0.3360     7.2860    -2.9140 c3         1 M99       0.104700
     88 O33          1.0650     4.9310    -0.2680 os         1 M99      -0.439029
     89 O34         -2.2990     5.6300     1.0730 os         1 M99      -0.425457
     90 O35         -0.0060     6.7680     2.4410 os         1 M99      -0.426314
     91 C56          0.7310     7.1030     3.6000 c3         1 M99       0.110986
     92 H1          -5.8630    -1.5310     2.7980 h1         1 M99       0.058343
     93 H2          -4.9030    -0.1080     2.3150 h1         1 M99       0.058343
     94 H3          -6.0410     0.3710    -2.5620 ho         1 M99       0.436571
     95 H4          -5.5660     4.9530    -3.8820 h1         1 M99       0.041462
     96 H5          -6.3080     4.9080    -2.2700 h1         1 M99       0.041462
     97 H6          -6.6870     3.6240    -3.4670 h1         1 M99       0.041462
     98 H7          -5.8510     1.8070     4.9540 h1         1 M99       0.036938
     99 H8          -6.7150     1.9460     3.3970 h1         1 M99       0.036938
    100 H9          -6.4030     3.4030     4.3860 h1         1 M99       0.036938
    101 H10         -4.1900    -4.4070    -2.3950 ho         1 M99       0.436571
    102 H11         -7.7220    -1.3210    -3.4300 h1         1 M99       0.041462
    103 H12         -7.9080    -1.8600    -1.7480 h1         1 M99       0.041462
    104 H13         -7.3210    -3.0070    -2.9940 h1         1 M99       0.041462
    105 H14         -3.0290    -1.2550     5.1200 h1         1 M99       0.036938
    106 H15         -4.8080    -1.1130     5.0870 h1         1 M99       0.036938
    107 H16         -3.7960     0.1830     4.3790 h1         1 M99       0.036938
    108 H17          0.8220    -5.9220    -2.5910 ho         1 M99       0.436571
    109 H18         -3.8180    -6.5980    -3.6030 h1         1 M99       0.041462
    110 H19         -3.5030    -7.1800    -1.9560 h1         1 M99       0.041462
    111 H20         -2.2560    -7.3780    -3.2310 h1         1 M99       0.041462
    112 H21         -4.5100    -6.4330     3.7060 h1         1 M99       0.036938
    113 H22         -4.2960    -4.6540     3.7040 h1         1 M99       0.036938
    114 H23         -3.1440    -5.6990     4.5890 h1         1 M99       0.036938
    115 H24          5.1160    -2.9280    -2.6740 ho         1 M99       0.436571
    116 H25          2.7550    -6.9390    -3.8850 h1         1 M99       0.041462
    117 H26          3.4600    -7.1600    -2.2710 h1         1 M99       0.041462
    118 H27          4.3400    -6.2050    -3.5090 h1         1 M99       0.041462
    119 H28          2.7440    -3.6370     5.2610 h1         1 M99       0.036938
    120 H29          3.0680    -5.3370     4.8220 h1         1 M99       0.036938
    121 H30          1.4350    -4.6530     4.5920 h1         1 M99       0.036938
    122 H31          5.5010     2.2550    -2.4860 ho         1 M99       0.436571
    123 H32          7.2200    -2.0190    -3.7830 h1         1 M99       0.041462
    124 H33          7.7310    -1.6870    -2.1150 h1         1 M99       0.041462
    125 H34          7.6280    -0.3460    -3.3030 h1         1 M99       0.041462
    126 H35          7.5070    -3.1120     3.4050 h1         1 M99       0.036938
    127 H36          5.7410    -3.4170     3.4260 h1         1 M99       0.036938
    128 H37          6.4390    -2.0920     4.4070 h1         1 M99       0.036938
    129 H38          1.6840     5.7390    -2.4330 ho         1 M99       0.436571
    130 H39          6.1050     4.4430    -3.5890 h1         1 M99       0.041462
    131 H40          6.1240     5.0250    -1.9120 h1         1 M99       0.041462
    132 H41          5.0470     5.8040    -3.1180 h1         1 M99       0.041462
    133 H42          6.8850     4.1250     3.6620 h1         1 M99       0.036938
    134 H43          6.1760     2.4860     3.5830 h1         1 M99       0.036938
    135 H44          5.4040     3.7530     4.5860 h1         1 M99       0.036938
    136 H45         -3.4320     4.9160    -2.5590 ho         1 M99       0.436571
    137 H46          0.4010     7.4720    -3.6970 h1         1 M99       0.041462
    138 H47         -0.0980     7.9310    -2.0570 h1         1 M99       0.041462
    139 H48         -1.3380     7.5200    -3.2890 h1         1 M99       0.041462
    140 H49          0.9110     8.1810     3.5650 h1         1 M99       0.036938
    141 H50          1.6970     6.5760     3.6260 h1         1 M99       0.036938
    142 H51          0.1720     6.8650     4.5190 h1         1 M99       0.036938
    143 H52         -7.1680     0.6150    -0.0140 h2         1 M99       0.095843
    144 H53         -7.0240     2.6810    -1.2830 h1         1 M99       0.087129
    145 H54         -4.0700     1.9790    -1.6450 h1         1 M99       0.106557
    146 H55         -5.3290     4.3350    -0.1640 h1         1 M99       0.069271
    147 H56         -3.9030     1.8970     1.0100 h1         1 M99       0.081129
    148 H57         -3.7960     4.0040     2.3350 h1         1 M99       0.058343
    149 H58         -5.5710     4.1010     2.3250 h1         1 M99       0.058343
    150 H59         -4.8230    -5.0430     0.3380 h2         1 M99       0.095843
    151 H60         -6.4760    -3.7550    -0.8740 h1         1 M99       0.087129
    152 H61         -4.1810    -1.8840    -1.6370 h1         1 M99       0.106557
    153 H62         -6.5630    -1.3640     0.2150 h1         1 M99       0.069271
    154 H63         -3.5710    -1.6690     0.7990 h1         1 M99       0.081129
    155 H64          0.9260    -7.0120     0.0620 h2         1 M99       0.095843
    156 H65         -1.1400    -7.3400    -1.1360 h1         1 M99       0.087129
    157 H66         -1.0890    -4.3390    -1.7220 h1         1 M99       0.106557
    158 H67         -2.9900    -5.9450     0.0610 h1         1 M99       0.069271
    159 H68         -0.8270    -3.9260     0.8140 h1         1 M99       0.081129
    160 H69         -2.5510    -3.7570     2.4310 h1         1 M99       0.058343
    161 H70         -1.2890    -4.7990     3.1330 h1         1 M99       0.058343
    162 H71          6.0840    -3.6240    -0.1010 h2         1 M99       0.095843
    163 H72          5.0700    -5.4280    -1.3700 h1         1 M99       0.087129
    164 H73          2.6970    -3.5390    -1.7590 h1         1 M99       0.106557
    165 H74          2.8120    -6.1520    -0.1800 h1         1 M99       0.069271
    166 H75          2.5840    -3.2760     0.8400 h1         1 M99       0.081129
    167 H76          1.5610    -5.1650     2.2260 h1         1 M99       0.058343
    168 H77          3.2140    -5.8160     2.4010 h1         1 M99       0.058343
    169 H78          6.5010     2.4700     0.1900 h2         1 M99       0.095843
    170 H79          7.3440     0.6090    -1.1190 h1         1 M99       0.087129
    171 H80          4.4130    -0.0260    -1.7230 h1         1 M99       0.106557
    172 H81          6.4660    -1.5960    -0.0800 h1         1 M99       0.069271
    173 H82          3.9790    -0.0860     0.8340 h1         1 M99       0.081129
    174 H83          5.0100    -0.4470     3.1060 h1         1 M99       0.058343
    175 H84          4.3500    -1.9030     2.3220 h1         1 M99       0.058343
    176 H85          2.0460     6.6670     0.2780 h2         1 M99       0.095843
    177 H86          4.0640     6.1590    -0.9690 h1         1 M99       0.087129
    178 H87          2.7360     3.4850    -1.6340 h1         1 M99       0.106557
    179 H88          5.2000     4.0710     0.0820 h1         1 M99       0.069271
    180 H89          2.4400     3.0880     0.9270 h1         1 M99       0.081129
    181 H90          3.2970     3.6240     3.2220 h1         1 M99       0.058343
    182 H91          4.1070     2.2550     2.4140 h1         1 M99       0.058343
    183 H92         -4.0120     5.9260     0.0790 h2         1 M99       0.095843
    184 H93         -2.2930     7.0880    -1.1550 h1         1 M99       0.087129
    185 H94         -1.0440     4.3400    -1.6490 h1         1 M99       0.106557
    186 H95          0.0000     6.6930     0.0030 h1         1 M99       0.069271
    187 H96         -1.0400     3.9820     0.9420 h1         1 M99       0.081129
    188 H97          0.6070     4.7900     2.4590 h1         1 M99       0.058343
    189 H98         -0.9920     5.0980     3.1890 h1         1 M99       0.058343
@<TRIPOS>BOND
     1     1     2 1   
     2     1    47 1   
     3     1    53 1   
     4     1   143 1   
     5     2     3 1   
     6     2    43 1   
     7     2   144 1   
     8     3     4 1   
     9     3    44 1   
    10     3   145 1   
    11     4     5 1   
    12     4    46 1   
    13     4   146 1   
    14     5     6 1   
    15     5    47 1   
    16     5   147 1   
    17     6    48 1   
    18     6   148 1   
    19     6   149 1   
    20     7     8 1   
    21     7    54 1   
    22     7    60 1   
    23     7   150 1   
    24     8     9 1   
    25     8    50 1   
    26     8   151 1   
    27     9    10 1   
    28     9    51 1   
    29     9   152 1   
    30    10    11 1   
    31    10    53 1   
    32    10   153 1   
    33    11    12 1   
    34    11    54 1   
    35    11   154 1   
    36    12    55 1   
    37    12    92 1   
    38    12    93 1   
    39    13    14 1   
    40    13    61 1   
    41    13    67 1   
    42    13   155 1   
    43    14    15 1   
    44    14    57 1   
    45    14   156 1   
    46    15    16 1   
    47    15    58 1   
    48    15   157 1   
    49    16    17 1   
    50    16    60 1   
    51    16   158 1   
    52    17    18 1   
    53    17    61 1   
    54    17   159 1   
    55    18    62 1   
    56    18   160 1   
    57    18   161 1   
    58    19    20 1   
    59    19    68 1   
    60    19    74 1   
    61    19   162 1   
    62    20    21 1   
    63    20    64 1   
    64    20   163 1   
    65    21    22 1   
    66    21    65 1   
    67    21   164 1   
    68    22    23 1   
    69    22    67 1   
    70    22   165 1   
    71    23    24 1   
    72    23    68 1   
    73    23   166 1   
    74    24    69 1   
    75    24   167 1   
    76    24   168 1   
    77    25    26 1   
    78    25    75 1   
    79    25    81 1   
    80    25   169 1   
    81    26    27 1   
    82    26    71 1   
    83    26   170 1   
    84    27    28 1   
    85    27    72 1   
    86    27   171 1   
    87    28    29 1   
    88    28    74 1   
    89    28   172 1   
    90    29    30 1   
    91    29    75 1   
    92    29   173 1   
    93    30    76 1   
    94    30   174 1   
    95    30   175 1   
    96    31    32 1   
    97    31    82 1   
    98    31    88 1   
    99    31   176 1   
   100    32    33 1   
   101    32    78 1   
   102    32   177 1   
   103    33    34 1   
   104    33    79 1   
   105    33   178 1   
   106    34    35 1   
   107    34    81 1   
   108    34   179 1   
   109    35    36 1   
   110    35    82 1   
   111    35   180 1   
   112    36    83 1   
   113    36   181 1   
   114    36   182 1   
   115    37    38 1   
   116    37    46 1   
   117    37    89 1   
   118    37   183 1   
   119    38    39 1   
   120    38    85 1   
   121    38   184 1   
   122    39    40 1   
   123    39    86 1   
   124    39   185 1   
   125    40    41 1   
   126    40    88 1   
   127    40   186 1   
   128    41    42 1   
   129    41    89 1   
   130    41   187 1   
   131    42    90 1   
   132    42   188 1   
   133    42   189 1   
   134    43    94 1   
   135    44    45 1   
   136    45    95 1   
   137    45    96 1   
   138    45    97 1   
   139    48    49 1   
   140    49    98 1   
   141    49    99 1   
   142    49   100 1   
   143    50   101 1   
   144    51    52 1   
   145    52   102 1   
   146    52   103 1   
   147    52   104 1   
   148    55    56 1   
   149    56   105 1   
   150    56   106 1   
   151    56   107 1   
   152    57   108 1   
   153    58    59 1   
   154    59   109 1   
   155    59   110 1   
   156    59   111 1   
   157    62    63 1   
   158    63   112 1   
   159    63   113 1   
   160    63   114 1   
   161    64   115 1   
   162    65    66 1   
   163    66   116 1   
   164    66   117 1   
   165    66   118 1   
   166    69    70 1   
   167    70   119 1   
   168    70   120 1   
   169    70   121 1   
   170    71   122 1   
   171    72    73 1   
   172    73   123 1   
   173    73   124 1   
   174    73   125 1   
   175    76    77 1   
   176    77   126 1   
   177    77   127 1   
   178    77   128 1   
   179    78   129 1   
   180    79    80 1   
   181    80   130 1   
   182    80   131 1   
   183    80   132 1   
   184    83    84 1   
   185    84   133 1   
   186    84   134 1   
   187    84   135 1   
   188    85   136 1   
   189    86    87 1   
   190    87   137 1   
   191    87   138 1   
   192    87   139 1   
   193    90    91 1   
   194    91   140 1   
   195    91   141 1   
   196    91   142 1   
@<TRIPOS>SUBSTRUCTURE
     1 M99         1 TEMP              0 ****  ****    0 ROOT
