@<TRIPOS>MOLECULE
SP6
  126   132     1     0     0
SMALL
bcc


@<TRIPOS>ATOM
      1 C1           2.0960    -5.0190    -1.2050 ca         1 SP6       0.157100
      2 C2           3.3010    -4.3290     1.2020 ca         1 SP6       0.157100
      3 C3           1.3620    -5.2770    -0.0220 ca         1 SP6      -0.071300
      4 C4           3.2660    -4.2360    -1.1730 ca         1 SP6      -0.147000
      5 C5           3.8900    -3.8180     0.0190 ca         1 SP6      -0.071300
      6 C6           2.0380    -4.9500     1.1700 ca         1 SP6      -0.147000
      7 H1           3.7250    -3.9840    -2.1240 ha         1 SP6       0.145000
      8 H2           1.5920    -5.2250     2.1210 ha         1 SP6       0.145000
      9 C7           0.0000    -6.0270    -0.0010 c3         1 SP6       0.024200
     10 H3           0.0060    -6.6790     0.8770 hc         1 SP6       0.056700
     11 H4          -0.0050    -6.6790    -0.8790 hc         1 SP6       0.056700
     12 O1           1.6350    -5.4810    -2.4490 os         1 SP6      -0.517800
     13 O2           3.9340    -4.1640     2.4460 os         1 SP6      -0.517800
     14 S1           2.3130    -6.8920    -3.1590 s6         1 SP6       1.678300
     15 O3           1.8900    -8.0370    -2.3100 o          1 SP6      -0.770867
     16 O4           3.7830    -6.6990    -3.2020 o          1 SP6      -0.770867
     17 S2           4.8190    -5.4580     3.1500 s6         1 SP6       1.678300
     18 O5           3.9180    -6.6350     3.1900 o          1 SP6      -0.770867
     19 O6           6.0210    -5.6600     2.2990 o          1 SP6      -0.770867
     20 O7           1.6660    -6.8680    -4.4950 o          1 SP6      -0.770867
     21 O8           5.1220    -4.8900     4.4880 o          1 SP6      -0.770867
     22 C8          -3.3010    -4.3280    -1.2020 ca         1 SP6       0.157100
     23 C9          -2.0960    -5.0200     1.2050 ca         1 SP6       0.157100
     24 C10         -3.8890    -3.8190    -0.0190 ca         1 SP6      -0.071300
     25 C11         -2.0380    -4.9500    -1.1710 ca         1 SP6      -0.147000
     26 C12         -1.3620    -5.2770     0.0210 ca         1 SP6      -0.071300
     27 C13         -3.2660    -4.2370     1.1730 ca         1 SP6      -0.147000
     28 H5          -1.5920    -5.2240    -2.1220 ha         1 SP6       0.145000
     29 H6          -3.7250    -3.9860     2.1240 ha         1 SP6       0.145000
     30 C14         -5.2200    -3.0140     0.0030 c3         1 SP6       0.024200
     31 H7          -5.7810    -3.3440     0.8810 hc         1 SP6       0.056700
     32 H8          -5.7880    -3.3360    -0.8740 hc         1 SP6       0.056700
     33 O9          -3.9340    -4.1630    -2.4460 os         1 SP6      -0.517800
     34 O10         -1.6340    -5.4830     2.4480 os         1 SP6      -0.517800
     35 S3          -4.8190    -5.4570    -3.1500 s6         1 SP6       1.678300
     36 O11         -6.0210    -5.6600    -2.2990 o          1 SP6      -0.770867
     37 O12         -3.9170    -6.6340    -3.1910 o          1 SP6      -0.770867
     38 S4          -2.3120    -6.8940     3.1570 s6         1 SP6       1.678300
     39 O13         -3.7820    -6.7020     3.2000 o          1 SP6      -0.770867
     40 O14         -1.8880    -8.0390     2.3080 o          1 SP6      -0.770867
     41 O15         -5.1220    -4.8890    -4.4880 o          1 SP6      -0.770867
     42 O16         -1.6660    -6.8700     4.4940 o          1 SP6      -0.770867
     43 C15         -5.3970     0.6930    -1.2040 ca         1 SP6       0.157100
     44 C16         -5.3970    -0.6930     1.2050 ca         1 SP6       0.157100
     45 C17         -5.2510     1.4590    -0.0220 ca         1 SP6      -0.071300
     46 C18         -5.3040    -0.7120    -1.1710 ca         1 SP6      -0.147000
     47 C19         -5.2510    -1.4590     0.0220 ca         1 SP6      -0.071300
     48 C20         -5.3030     0.7110     1.1710 ca         1 SP6      -0.147000
     49 H9          -5.3180    -1.2360    -2.1210 ha         1 SP6       0.145000
     50 H10         -5.3160     1.2360     2.1220 ha         1 SP6       0.145000
     51 C21         -5.2200     3.0130    -0.0020 c3         1 SP6       0.024200
     52 H11         -5.7880     3.3360     0.8750 hc         1 SP6       0.056700
     53 H12         -5.7810     3.3430    -0.8810 hc         1 SP6       0.056700
     54 O17         -5.5690     1.3220    -2.4480 os         1 SP6      -0.517800
     55 O18         -5.5670    -1.3230     2.4490 os         1 SP6      -0.517800
     56 S5          -7.1320     1.4410    -3.1540 s6         1 SP6       1.678300
     57 O19         -7.9090     2.3820    -2.3060 o          1 SP6      -0.770867
     58 O20         -7.7020     0.0720    -3.1930 o          1 SP6      -0.770867
     59 S6          -7.1300    -1.4420     3.1560 s6         1 SP6       1.678300
     60 O21         -7.6990    -0.0730     3.1970 o          1 SP6      -0.770867
     61 O22         -7.9080    -2.3820     2.3080 o          1 SP6      -0.770867
     62 O23         -6.7900     1.9860    -4.4930 o          1 SP6      -0.770867
     63 O24         -6.7870    -1.9880     4.4940 o          1 SP6      -0.770867
     64 C22         -2.0960     5.0190    -1.2050 ca         1 SP6       0.157100
     65 C23         -3.3010     4.3290     1.2020 ca         1 SP6       0.157100
     66 C24         -1.3620     5.2770    -0.0220 ca         1 SP6      -0.071300
     67 C25         -3.2660     4.2360    -1.1730 ca         1 SP6      -0.147000
     68 C26         -3.8900     3.8180     0.0190 ca         1 SP6      -0.071300
     69 C27         -2.0380     4.9500     1.1700 ca         1 SP6      -0.147000
     70 H13         -3.7250     3.9840    -2.1240 ha         1 SP6       0.145000
     71 H14         -1.5920     5.2250     2.1210 ha         1 SP6       0.145000
     72 C28         -0.0000     6.0270    -0.0010 c3         1 SP6       0.024200
     73 H15         -0.0060     6.6790     0.8770 hc         1 SP6       0.056700
     74 H16          0.0050     6.6790    -0.8790 hc         1 SP6       0.056700
     75 O25         -1.6350     5.4810    -2.4490 os         1 SP6      -0.517800
     76 O26         -3.9340     4.1640     2.4460 os         1 SP6      -0.517800
     77 S7          -2.3130     6.8920    -3.1590 s6         1 SP6       1.678300
     78 O27         -1.8900     8.0370    -2.3100 o          1 SP6      -0.770867
     79 O28         -3.7830     6.6990    -3.2020 o          1 SP6      -0.770867
     80 S8          -4.8190     5.4580     3.1500 s6         1 SP6       1.678300
     81 O29         -3.9180     6.6350     3.1900 o          1 SP6      -0.770867
     82 O30         -6.0210     5.6600     2.2990 o          1 SP6      -0.770867
     83 O31         -1.6660     6.8680    -4.4950 o          1 SP6      -0.770867
     84 O32         -5.1220     4.8900     4.4880 o          1 SP6      -0.770867
     85 C29          3.3010     4.3280    -1.2020 ca         1 SP6       0.157100
     86 C30          2.0960     5.0200     1.2050 ca         1 SP6       0.157100
     87 C31          3.8890     3.8190    -0.0190 ca         1 SP6      -0.071300
     88 C32          2.0380     4.9500    -1.1710 ca         1 SP6      -0.147000
     89 C33          1.3620     5.2770     0.0210 ca         1 SP6      -0.071300
     90 C34          3.2660     4.2370     1.1730 ca         1 SP6      -0.147000
     91 H17          1.5920     5.2240    -2.1220 ha         1 SP6       0.145000
     92 H18          3.7250     3.9860     2.1240 ha         1 SP6       0.145000
     93 C35          5.2200     3.0140     0.0030 c3         1 SP6       0.024200
     94 H19          5.7810     3.3440     0.8810 hc         1 SP6       0.056700
     95 H20          5.7880     3.3360    -0.8740 hc         1 SP6       0.056700
     96 O33          3.9340     4.1630    -2.4460 os         1 SP6      -0.517800
     97 O34          1.6340     5.4830     2.4480 os         1 SP6      -0.517800
     98 S9           4.8190     5.4570    -3.1500 s6         1 SP6       1.678300
     99 O35          6.0210     5.6600    -2.2990 o          1 SP6      -0.770867
    100 O36          3.9170     6.6340    -3.1910 o          1 SP6      -0.770867
    101 S10          2.3120     6.8940     3.1570 s6         1 SP6       1.678300
    102 O37          3.7820     6.7020     3.2000 o          1 SP6      -0.770867
    103 O38          1.8880     8.0390     2.3080 o          1 SP6      -0.770867
    104 O39          5.1220     4.8890    -4.4880 o          1 SP6      -0.770867
    105 O40          1.6660     6.8700     4.4940 o          1 SP6      -0.770867
    106 C36          5.3970    -0.6930    -1.2040 ca         1 SP6       0.157100
    107 C37          5.3970     0.6930     1.2050 ca         1 SP6       0.157100
    108 C38          5.2510    -1.4590    -0.0220 ca         1 SP6      -0.071300
    109 C39          5.3040     0.7120    -1.1710 ca         1 SP6      -0.147000
    110 C40          5.2510     1.4590     0.0220 ca         1 SP6      -0.071300
    111 C41          5.3030    -0.7110     1.1710 ca         1 SP6      -0.147000
    112 H21          5.3180     1.2360    -2.1210 ha         1 SP6       0.145000
    113 H22          5.3160    -1.2360     2.1220 ha         1 SP6       0.145000
    114 C42          5.2200    -3.0130    -0.0020 c3         1 SP6       0.024200
    115 H23          5.7880    -3.3360     0.8750 hc         1 SP6       0.056700
    116 H24          5.7810    -3.3430    -0.8810 hc         1 SP6       0.056700
    117 O41          5.5690    -1.3220    -2.4480 os         1 SP6      -0.517800
    118 O42          5.5670     1.3230     2.4490 os         1 SP6      -0.517800
    119 S11          7.1320    -1.4410    -3.1540 s6         1 SP6       1.678300
    120 O43          7.9090    -2.3820    -2.3060 o          1 SP6      -0.770867
    121 O44          7.7020    -0.0720    -3.1930 o          1 SP6      -0.770867
    122 S12          7.1300     1.4420     3.1560 s6         1 SP6       1.678300
    123 O45          7.6990     0.0730     3.1970 o          1 SP6      -0.770867
    124 O46          7.9080     2.3820     2.3080 o          1 SP6      -0.770867
    125 O47          6.7900    -1.9860    -4.4930 o          1 SP6      -0.770867
    126 O48          6.7870     1.9880     4.4940 o          1 SP6      -0.770867
@<TRIPOS>BOND
     1     1     3 ar  
     2     1     4 ar  
     3     1    12 1   
     4     2     5 ar  
     5     2     6 ar  
     6     2    13 1   
     7     3     6 ar  
     8     3     9 1   
     9     4     5 ar  
    10     4     7 1   
    11     5   114 1   
    12     6     8 1   
    13     9    10 1   
    14     9    11 1   
    15     9    26 1   
    16    12    14 1   
    17    13    17 1   
    18    14    15 1   
    19    14    16 1   
    20    14    20 1   
    21    17    18 1   
    22    17    19 1   
    23    17    21 1   
    24    22    24 ar  
    25    22    25 ar  
    26    22    33 1   
    27    23    26 ar  
    28    23    27 ar  
    29    23    34 1   
    30    24    27 ar  
    31    24    30 1   
    32    25    26 ar  
    33    25    28 1   
    34    27    29 1   
    35    30    31 1   
    36    30    32 1   
    37    30    47 1   
    38    33    35 1   
    39    34    38 1   
    40    35    36 1   
    41    35    37 1   
    42    35    41 1   
    43    38    39 1   
    44    38    40 1   
    45    38    42 1   
    46    43    45 ar  
    47    43    46 ar  
    48    43    54 1   
    49    44    47 ar  
    50    44    48 ar  
    51    44    55 1   
    52    45    48 ar  
    53    45    51 1   
    54    46    47 ar  
    55    46    49 1   
    56    48    50 1   
    57    51    52 1   
    58    51    53 1   
    59    51    68 1   
    60    54    56 1   
    61    55    59 1   
    62    56    57 1   
    63    56    58 1   
    64    56    62 1   
    65    59    60 1   
    66    59    61 1   
    67    59    63 1   
    68    64    66 ar  
    69    64    67 ar  
    70    64    75 1   
    71    65    68 ar  
    72    65    69 ar  
    73    65    76 1   
    74    66    69 ar  
    75    66    72 1   
    76    67    68 ar  
    77    67    70 1   
    78    69    71 1   
    79    72    73 1   
    80    72    74 1   
    81    72    89 1   
    82    75    77 1   
    83    76    80 1   
    84    77    78 1   
    85    77    79 1   
    86    77    83 1   
    87    80    81 1   
    88    80    82 1   
    89    80    84 1   
    90    85    87 ar  
    91    85    88 ar  
    92    85    96 1   
    93    86    89 ar  
    94    86    90 ar  
    95    86    97 1   
    96    87    90 ar  
    97    87    93 1   
    98    88    89 ar  
    99    88    91 1   
   100    90    92 1   
   101    93    94 1   
   102    93    95 1   
   103    93   110 1   
   104    96    98 1   
   105    97   101 1   
   106    98    99 1   
   107    98   100 1   
   108    98   104 1   
   109   101   102 1   
   110   101   103 1   
   111   101   105 1   
   112   106   108 ar  
   113   106   109 ar  
   114   106   117 1   
   115   107   110 ar  
   116   107   111 ar  
   117   107   118 1   
   118   108   111 ar  
   119   108   114 1   
   120   109   110 ar  
   121   109   112 1   
   122   111   113 1   
   123   114   115 1   
   124   114   116 1   
   125   117   119 1   
   126   118   122 1   
   127   119   120 1   
   128   119   121 1   
   129   119   125 1   
   130   122   123 1   
   131   122   124 1   
   132   122   126 1   
@<TRIPOS>SUBSTRUCTURE
     1 SP6         1 TEMP              0 ****  ****    0 ROOT
