@<TRIPOS>MOLECULE
MG0
  147   154     1     0     0
SMALL
resp


@<TRIPOS>ATOM
      1 C1           6.1220    -0.7950     0.0500 c3         1 MG0      -0.051313
      2 O1           5.1070     0.1720    -0.1320 os         1 MG0      -0.192694
      3 C2           6.1660    -1.6950    -1.1930 c3         1 MG0       0.206855
      4 O2           6.4470    -1.0100    -2.3960 oh         1 MG0      -0.588154
      5 C3           4.8520    -2.4720    -1.3020 c3         1 MG0      -0.012161
      6 O3           4.9050    -3.3630    -2.4130 oh         1 MG0      -0.545468
      7 C4           4.6110    -3.2770    -0.0350 c3         1 MG0       0.090224
      8 C5           4.6650    -2.3620     1.2020 c3         1 MG0      -0.161795
      9 O4           5.8780    -1.5780     1.2050 os         1 MG0      -0.230730
     10 C6           4.7030    -3.1460     2.5120 c3         1 MG0       0.200569
     11 O5           5.8520    -3.9730     2.5930 oh         1 MG0      -0.572743
     12 H1           7.0870    -0.3120     0.2250 h2         1 MG0       0.171319
     13 H2           6.9810    -2.4160    -1.0540 h1         1 MG0       0.104256
     14 H3           5.9950    -0.1380    -2.4000 ho         1 MG0       0.374871
     15 H4           4.0240    -1.7600    -1.4320 h1         1 MG0       0.105176
     16 H5           5.3010    -2.8510    -3.1420 ho         1 MG0       0.401904
     17 H6           5.3840    -4.0490     0.0600 h1         1 MG0       0.113888
     18 H7           3.7930    -1.6950     1.1880 h1         1 MG0       0.114938
     19 H8           4.6600    -2.4350     3.3510 h1         1 MG0       0.050251
     20 H9           3.8340    -3.8060     2.5710 h1         1 MG0       0.050251
     21 H10          6.6150    -3.3810     2.4850 ho         1 MG0       0.370556
     22 C7           4.4380     4.2890     0.0490 c3         1 MG0      -0.051313
     23 O6           3.0490     4.0990    -0.1340 os         1 MG0      -0.192694
     24 C8           5.1700     3.7620    -1.1930 c3         1 MG0       0.206855
     25 O7           4.8100     4.4070    -2.3970 oh         1 MG0      -0.588154
     26 C9           4.9590     2.2500    -1.3010 c3         1 MG0      -0.012161
     27 O8           5.6890     1.7350    -2.4110 oh         1 MG0      -0.545468
     28 C10          5.4370     1.5610    -0.0330 c3         1 MG0       0.090224
     29 C11          4.7540     2.1750     1.2030 c3         1 MG0      -0.161795
     30 O9           4.8970     3.6120     1.2050 os         1 MG0      -0.230730
     31 C12          5.3890     1.7170     2.5140 c3         1 MG0       0.200569
     32 O10          6.7520     2.0990     2.5960 oh         1 MG0      -0.572743
     33 H11          4.6620     5.3460     0.2230 h2         1 MG0       0.171319
     34 H12          6.2420     3.9500    -1.0540 h1         1 MG0       0.104256
     35 H13          3.8470     4.5960    -2.4030 ho         1 MG0       0.374871
     36 H14          3.8860     2.0460    -1.4320 h1         1 MG0       0.105176
     37 H15          5.5370     2.3630    -3.1400 ho         1 MG0       0.401904
     38 H16          6.5230     1.6840     0.0640 h1         1 MG0       0.113888
     39 H17          3.6890     1.9080     1.1880 h1         1 MG0       0.114938
     40 H18          4.8050     2.1270     3.3520 h1         1 MG0       0.050251
     41 H19          5.3630     0.6260     2.5740 h1         1 MG0       0.050251
     42 H20          6.7650     3.0640     2.4880 ho         1 MG0       0.370556
     43 C13         -0.5870     6.1430     0.0450 c3         1 MG0      -0.051313
     44 O11         -1.3050     4.9390    -0.1360 os         1 MG0      -0.192694
     45 C14          0.2810     6.3840    -1.1980 c3         1 MG0       0.206855
     46 O12         -0.4470     6.5020    -2.4030 oh         1 MG0      -0.588154
     47 C15          1.3320     5.2760    -1.3050 c3         1 MG0      -0.012161
     48 O13          2.1890     5.5230    -2.4160 oh         1 MG0      -0.545468
     49 C16          2.1690     5.2230    -0.0370 c3         1 MG0       0.090224
     50 C17          1.2630     5.0740     1.1990 c3         1 MG0      -0.161795
     51 O14          0.2300     6.0820     1.2000 os         1 MG0      -0.230730
     52 C18          2.0180     5.2870     2.5100 c3         1 MG0       0.200569
     53 O15          2.5700     6.5910     2.5900 oh         1 MG0      -0.572743
     54 H21         -1.2730     6.9780     0.2170 h2         1 MG0       0.171319
     55 H22          0.8030     7.3390    -1.0610 h1         1 MG0       0.104256
     56 H23         -1.1980     5.8690    -2.4060 ho         1 MG0       0.374871
     57 H24          0.8220     4.3100    -1.4330 h1         1 MG0       0.105176
     58 H25          1.6030     5.7940    -3.1450 ho         1 MG0       0.401904
     59 H26          2.7500     6.1490     0.0580 h1         1 MG0       0.113888
     60 H27          0.8080     4.0750     1.1870 h1         1 MG0       0.114938
     61 H28          1.3330     5.0890     3.3490 h1         1 MG0       0.050251
     62 H29          2.8550     4.5860     2.5710 h1         1 MG0       0.050251
     63 H30          1.8230     7.2030     2.4800 ho         1 MG0       0.370556
     64 C19         -5.1700     3.3720     0.0480 c3         1 MG0      -0.051313
     65 O16         -4.6760     2.0600    -0.1330 os         1 MG0      -0.192694
     66 C20         -4.8190     4.2010    -1.1950 c3         1 MG0       0.206855
     67 O17         -5.3670     3.7050    -2.3990 oh         1 MG0      -0.588154
     68 C21         -3.2970     4.3310    -1.3040 c3         1 MG0      -0.012161
     69 O18         -2.9570     5.1560    -2.4150 oh         1 MG0      -0.545468
     70 C22         -2.7320     4.9530    -0.0360 c3         1 MG0       0.090224
     71 C23         -3.1790     4.1520     1.2000 c3         1 MG0      -0.161795
     72 O19         -4.6120     3.9720     1.2020 os         1 MG0      -0.230730
     73 C24         -2.8730     4.8750     2.5110 c3         1 MG0       0.200569
     74 O20         -3.5490     6.1190     2.5910 oh         1 MG0      -0.572743
     75 H31         -6.2500     3.3560     0.2210 h2         1 MG0       0.171319
     76 H32         -5.2400     5.2040    -1.0580 h1         1 MG0       0.104256
     77 H33         -5.3390     2.7230    -2.4030 ho         1 MG0       0.374871
     78 H34         -2.8600     3.3300    -1.4330 h1         1 MG0       0.105176
     79 H35         -3.5350     4.8670    -3.1440 ho         1 MG0       0.401904
     80 H36         -3.0930     5.9840     0.0590 h1         1 MG0       0.113888
     81 H37         -2.6820     3.1730     1.1870 h1         1 MG0       0.114938
     82 H38         -3.1440     4.2160     3.3500 h1         1 MG0       0.050251
     83 H39         -1.8040     5.0920     2.5700 h1         1 MG0       0.050251
     84 H40         -4.4930     5.9170     2.4820 ho         1 MG0       0.370556
     85 C25         -5.8600    -1.9390     0.0520 c3         1 MG0      -0.051313
     86 O21         -4.5260    -2.3710    -0.1320 os         1 MG0      -0.192694
     87 C26         -6.2910    -1.1470    -1.1910 c3         1 MG0       0.206855
     88 O22         -6.2480    -1.8850    -2.3950 oh         1 MG0      -0.588154
     89 C27         -5.4440     0.1230    -1.3000 c3         1 MG0      -0.012161
     90 O23         -5.8790     0.9030    -2.4110 oh         1 MG0      -0.545468
     91 C28         -5.5770     0.9520    -0.0330 c3         1 MG0       0.090224
     92 C29         -5.2270     0.1030     1.2040 c3         1 MG0      -0.161795
     93 O24         -5.9790    -1.1290     1.2070 os         1 MG0      -0.230730
     94 C30         -5.6000     0.7930     2.5150 c3         1 MG0       0.200569
     95 O25         -6.9940     1.0400     2.5970 oh         1 MG0      -0.572743
     96 H41         -6.5200    -2.7940     0.2260 h2         1 MG0       0.171319
     97 H42         -7.3380    -0.8510    -1.0510 h1         1 MG0       0.104256
     98 H43         -5.4620    -2.4750    -2.4000 ho         1 MG0       0.374871
     99 H44         -4.3900    -0.1590    -1.4310 h1         1 MG0       0.105176
    100 H45         -6.0150     0.2710    -3.1400 ho         1 MG0       0.401904
    101 H46         -6.6080     1.3130     0.0640 h1         1 MG0       0.113888
    102 H47         -4.1520    -0.1180     1.1890 h1         1 MG0       0.114938
    103 H48         -5.2520     0.1700     3.3530 h1         1 MG0       0.050251
    104 H49         -5.1030     1.7650     2.5740 h1         1 MG0       0.050251
    105 H50         -7.4250     0.1750     2.4880 ho         1 MG0       0.370556
    106 C31         -2.1370    -5.7890     0.0470 c3         1 MG0      -0.051313
    107 O26         -0.9680    -5.0150    -0.1350 os         1 MG0      -0.192694
    108 C32         -3.0250    -5.6310    -1.1950 c3         1 MG0       0.206855
    109 O27         -2.4210    -6.0540    -2.4000 oh         1 MG0      -0.588154
    110 C33         -3.4910    -4.1770    -1.3020 c3         1 MG0      -0.012161
    111 C34         -4.2210    -3.7660    -0.0340 c3         1 MG0       0.090224
    112 C35         -3.3390    -4.0230     1.2020 c3         1 MG0      -0.161795
    113 O28         -2.8450    -5.3790     1.2020 os         1 MG0      -0.230730
    114 C36         -4.1100    -3.8870     2.5130 c3         1 MG0       0.200569
    115 O29         -5.1730    -4.8230     2.5940 oh         1 MG0      -0.572743
    116 O30         -4.3720    -4.0290    -2.4120 oh         1 MG0      -0.545468
    117 H51         -1.8800    -6.8390     0.2200 h2         1 MG0       0.171319
    118 H52         -3.9090    -6.2660    -1.0570 h1         1 MG0       0.104256
    119 H53         -1.4700    -5.8070    -2.4050 ho         1 MG0       0.374871
    120 H54         -2.6130    -3.5280    -1.4320 h1         1 MG0       0.105176
    121 H55         -3.9620    -4.5280    -3.1420 ho         1 MG0       0.401904
    122 H56         -5.1460    -4.3470     0.0620 h1         1 MG0       0.113888
    123 H57         -2.4960    -3.3200     1.1880 h1         1 MG0       0.114938
    124 H58         -3.4070    -4.0040     3.3510 h1         1 MG0       0.050251
    125 H59         -4.5610    -2.8930     2.5740 h1         1 MG0       0.050251
    126 H60         -4.7650    -5.6980     2.4850 ho         1 MG0       0.370556
    127 C37          3.1940    -5.2810     0.0440 c3         1 MG0      -0.051313
    128 O31          3.3190    -3.8840    -0.1350 os         1 MG0      -0.192694
    129 C38          2.5170    -5.8730    -1.1990 c3         1 MG0       0.206855
    130 O32          3.2250    -5.6630    -2.4040 oh         1 MG0      -0.588154
    131 C39          1.0900    -5.3300    -1.3060 c3         1 MG0      -0.012161
    132 O33          0.4250    -5.9250    -2.4170 oh         1 MG0      -0.545468
    133 C40          0.3120    -5.6470    -0.0380 c3         1 MG0       0.090224
    134 C41          1.0640    -5.1200     1.1990 c3         1 MG0      -0.161795
    135 O34          2.4320    -5.5800     1.1990 os         1 MG0      -0.230730
    136 C42          0.4750    -5.6400     2.5090 c3         1 MG0       0.200569
    137 O35          0.5440    -7.0540     2.5880 oh         1 MG0      -0.572743
    138 H61          4.1750    -5.7350     0.2160 h2         1 MG0       0.171319
    139 H62          2.4610    -6.9600    -1.0630 h1         1 MG0       0.104256
    140 H63          3.6270    -4.7660    -2.4050 ho         1 MG0       0.374871
    141 H64          1.1300    -4.2390    -1.4340 h1         1 MG0       0.105176
    142 H65          1.0710    -5.9140    -3.1460 ho         1 MG0       0.401904
    143 H66          0.1910    -6.7320     0.0560 h1         1 MG0       0.113888
    144 H67          1.0410    -4.0220     1.1860 h1         1 MG0       0.114938
    145 H68          1.0060    -5.1640     3.3480 h1         1 MG0       0.050251
    146 H69         -0.5820    -5.3710     2.5700 h1         1 MG0       0.050251
    147 H70          1.4820    -7.2820     2.4790 ho         1 MG0       0.370556
@<TRIPOS>BOND
     1     1     2 1   
     2     1     3 1   
     3     1     9 1   
     4     1    12 1   
     5     2    28 1   
     6     3     4 1   
     7     3     5 1   
     8     3    13 1   
     9     4    14 1   
    10     5     6 1   
    11     5     7 1   
    12     5    15 1   
    13     6    16 1   
    14     7     8 1   
    15     7    17 1   
    16     7   128 1   
    17     8     9 1   
    18     8    10 1   
    19     8    18 1   
    20    10    11 1   
    21    10    19 1   
    22    10    20 1   
    23    11    21 1   
    24    22    23 1   
    25    22    24 1   
    26    22    30 1   
    27    22    33 1   
    28    23    49 1   
    29    24    25 1   
    30    24    26 1   
    31    24    34 1   
    32    25    35 1   
    33    26    27 1   
    34    26    28 1   
    35    26    36 1   
    36    27    37 1   
    37    28    29 1   
    38    28    38 1   
    39    29    30 1   
    40    29    31 1   
    41    29    39 1   
    42    31    32 1   
    43    31    40 1   
    44    31    41 1   
    45    32    42 1   
    46    43    44 1   
    47    43    45 1   
    48    43    51 1   
    49    43    54 1   
    50    44    70 1   
    51    45    46 1   
    52    45    47 1   
    53    45    55 1   
    54    46    56 1   
    55    47    48 1   
    56    47    49 1   
    57    47    57 1   
    58    48    58 1   
    59    49    50 1   
    60    49    59 1   
    61    50    51 1   
    62    50    52 1   
    63    50    60 1   
    64    52    53 1   
    65    52    61 1   
    66    52    62 1   
    67    53    63 1   
    68    64    65 1   
    69    64    66 1   
    70    64    72 1   
    71    64    75 1   
    72    65    91 1   
    73    66    67 1   
    74    66    68 1   
    75    66    76 1   
    76    67    77 1   
    77    68    69 1   
    78    68    70 1   
    79    68    78 1   
    80    69    79 1   
    81    70    71 1   
    82    70    80 1   
    83    71    72 1   
    84    71    73 1   
    85    71    81 1   
    86    73    74 1   
    87    73    82 1   
    88    73    83 1   
    89    74    84 1   
    90    85    86 1   
    91    85    87 1   
    92    85    93 1   
    93    85    96 1   
    94    86   111 1   
    95    87    88 1   
    96    87    89 1   
    97    87    97 1   
    98    88    98 1   
    99    89    90 1   
   100    89    91 1   
   101    89    99 1   
   102    90   100 1   
   103    91    92 1   
   104    91   101 1   
   105    92    93 1   
   106    92    94 1   
   107    92   102 1   
   108    94    95 1   
   109    94   103 1   
   110    94   104 1   
   111    95   105 1   
   112   106   107 1   
   113   106   108 1   
   114   106   113 1   
   115   106   117 1   
   116   107   133 1   
   117   108   109 1   
   118   108   110 1   
   119   108   118 1   
   120   109   119 1   
   121   110   111 1   
   122   110   116 1   
   123   110   120 1   
   124   111   112 1   
   125   111   122 1   
   126   112   113 1   
   127   112   114 1   
   128   112   123 1   
   129   114   115 1   
   130   114   124 1   
   131   114   125 1   
   132   115   126 1   
   133   116   121 1   
   134   127   128 1   
   135   127   129 1   
   136   127   135 1   
   137   127   138 1   
   138   129   130 1   
   139   129   131 1   
   140   129   139 1   
   141   130   140 1   
   142   131   132 1   
   143   131   133 1   
   144   131   141 1   
   145   132   142 1   
   146   133   134 1   
   147   133   143 1   
   148   134   135 1   
   149   134   136 1   
   150   134   144 1   
   151   136   137 1   
   152   136   145 1   
   153   136   146 1   
   154   137   147 1   
@<TRIPOS>SUBSTRUCTURE
     1 MG0         1 TEMP              0 ****  ****    0 ROOT
