@<TRIPOS>MOLECULE
CB7
  126   147     1     0     0
SMALL
resp


@<TRIPOS>ATOM
      1 N1          -1.0180     5.1850    -1.2500 n          1 CB7      -0.098550
      2 N2          -0.9580     5.1500     1.2150 n          1 CB7      -0.098550
      3 N3           1.2190     5.0440    -1.2620 n          1 CB7      -0.098550
      4 N4           1.2840     5.1740     1.1990 n          1 CB7      -0.098550
      5 N5           3.3900     3.9310    -1.2650 n          1 CB7      -0.098550
      6 N6           3.4590     4.0560     1.1970 n          1 CB7      -0.098550
      7 N7           4.8040     2.1920    -1.2530 n          1 CB7      -0.098550
      8 N8           4.7510     2.2240     1.2120 n          1 CB7      -0.098550
      9 N9           5.2650    -0.2070    -1.1990 n          1 CB7      -0.098550
     10 N10          5.2540    -0.1660     1.2660 n          1 CB7      -0.098550
     11 N11          4.7600    -2.3910    -1.1900 n          1 CB7      -0.098550
     12 N12          4.6480    -2.3230     1.2720 n          1 CB7      -0.098550
     13 N13          3.1920    -4.2680    -1.2110 n          1 CB7      -0.098550
     14 N14          3.0730    -4.1880     1.2500 n          1 CB7      -0.098550
     15 N15          1.1090    -5.0950    -1.2300 n          1 CB7      -0.098550
     16 N16          1.0730    -5.1990     1.2340 n          1 CB7      -0.098550
     17 N17         -1.3320    -5.0470    -1.2740 n          1 CB7      -0.098550
     18 N18         -1.3700    -5.1170     1.1900 n          1 CB7      -0.098550
     19 N19         -3.3230    -4.0190    -1.2730 n          1 CB7      -0.098550
     20 N20         -3.3680    -4.1000     1.1900 n          1 CB7      -0.098550
     21 N21         -4.7890    -2.0680    -1.2340 n          1 CB7      -0.098550
     22 N22         -4.8540    -2.1580     1.2290 n          1 CB7      -0.098550
     23 N23         -5.3270     0.1080    -1.2140 n          1 CB7      -0.098550
     24 N24         -5.2000     0.0560     1.2480 n          1 CB7      -0.098550
     25 N25         -4.7140     2.4760    -1.1900 n          1 CB7      -0.098550
     26 N26         -4.5990     2.4210     1.2720 n          1 CB7      -0.098550
     27 N27         -3.2360     4.1620    -1.1970 n          1 CB7      -0.098550
     28 N28         -3.1930     4.1650     1.2680 n          1 CB7      -0.098550
     29 C1           0.0740     4.7670    -2.0060 c          1 CB7       0.476804
     30 C2           0.1720     4.8520     1.9740 c          1 CB7       0.476804
     31 C3          -0.6350     5.8360    -0.0190 c3         1 CB7      -0.117285
     32 H1          -1.0410     6.8600     0.0050 h2         1 CB7       0.133184
     33 C4           0.9330     5.7940    -0.0570 c3         1 CB7      -0.117285
     34 H2           1.3910     6.7940    -0.1220 h2         1 CB7       0.133184
     35 C5           2.5320     4.9340    -1.8550 c3         1 CB7       0.013861
     36 H3           2.3850     4.6490    -2.9000 h2         1 CB7       0.069713
     37 H4           3.0340     5.9130    -1.8010 h2         1 CB7       0.069713
     38 C6           2.6230     5.1030     1.7380 c3         1 CB7       0.013861
     39 H5           2.5230     4.9050     2.8070 h2         1 CB7       0.069713
     40 H6           3.1210     6.0720     1.5800 h2         1 CB7       0.069713
     41 C7           3.8290     2.8380    -2.0080 c          1 CB7       0.476804
     42 C8           3.8500     2.9670     1.9710 c          1 CB7       0.476804
     43 C9           4.1670     4.1350    -0.0600 c3         1 CB7      -0.117285
     44 H7           4.7120     5.0900    -0.1230 h2         1 CB7       0.133184
     45 C10          5.1150     2.8840    -0.0240 c3         1 CB7      -0.117285
     46 H8           6.1830     3.1520    -0.0050 h2         1 CB7       0.133184
     47 C11          5.5580     1.0820    -1.7870 c3         1 CB7       0.013861
     48 H9           6.6320     1.2950    -1.6700 h2         1 CB7       0.069713
     49 H10          5.3060     1.0080    -2.8480 h2         1 CB7       0.069713
     50 C12          5.5110     1.1470     1.8090 c3         1 CB7       0.013861
     51 H11          6.5860     1.3680     1.7100 h2         1 CB7       0.069713
     52 H12          5.2340     1.1150     2.8650 h2         1 CB7       0.069713
     53 C13          4.7190    -1.2340    -1.9650 c          1 CB7       0.476804
     54 C14          4.6080    -1.1460     2.0150 c          1 CB7       0.476804
     55 C15          5.8320    -0.6790     0.0460 c3         1 CB7      -0.117285
     56 H13          6.9210    -0.5110     0.0490 h2         1 CB7       0.133184
     57 C16          5.4430    -2.2000     0.0690 c3         1 CB7      -0.117285
     58 H14          6.3160    -2.8690     0.1270 h2         1 CB7       0.133184
     59 C17          4.4000    -3.6770    -1.7420 c3         1 CB7       0.013861
     60 H15          5.2340    -4.3780    -1.5870 h2         1 CB7       0.069713
     61 H16          4.2340    -3.5260    -2.8110 h2         1 CB7       0.069713
     62 C18          4.2420    -3.5830     1.8510 c3         1 CB7       0.013861
     63 H17          3.9930    -3.3860     2.8970 h2         1 CB7       0.069713
     64 H18          5.0830    -4.2920     1.7930 h2         1 CB7       0.069713
     65 C19          2.0380    -4.3800    -1.9820 c          1 CB7       0.476804
     66 C20          1.9150    -4.3940     1.9970 c          1 CB7       0.476804
     67 C21          3.1050    -4.9830     0.0400 c3         1 CB7      -0.117285
     68 H19          3.9130    -5.7280     0.1020 h2         1 CB7       0.133184
     69 C22          1.6740    -5.6270    -0.0070 c3         1 CB7      -0.117285
     70 H20          1.6960    -6.7270    -0.0520 h2         1 CB7       0.133184
     71 C23         -0.1120    -5.5820    -1.8340 c3         1 CB7       0.013861
     72 H21         -0.0860    -5.2820    -2.8840 h2         1 CB7       0.069713
     73 H22         -0.1380    -6.6810    -1.7580 h2         1 CB7       0.069713
     74 C24         -0.1760    -5.6980     1.7620 c3         1 CB7       0.013861
     75 H23         -0.2070    -6.7900     1.6230 h2         1 CB7       0.069713
     76 H24         -0.1880    -5.4570     2.8270 h2         1 CB7       0.069713
     77 C25         -2.1630    -4.2140    -2.0190 c          1 CB7       0.476804
     78 C26         -2.2350    -4.3450     1.9620 c          1 CB7       0.476804
     79 C27         -1.9590    -5.5310    -0.0650 c3         1 CB7      -0.117285
     80 H25         -2.0360    -6.6300    -0.0970 h2         1 CB7       0.133184
     81 C28         -3.3550    -4.8150    -0.0670 c3         1 CB7      -0.117285
     82 H26         -4.2030    -5.5180    -0.1050 h2         1 CB7       0.133184
     83 C29         -4.4690    -3.3430    -1.8370 c3         1 CB7       0.013861
     84 H27         -4.2370    -3.1460    -2.8860 h2         1 CB7       0.069713
     85 H28         -5.3450    -4.0060    -1.7640 h2         1 CB7       0.069713
     86 C30         -4.5360    -3.4650     1.7580 c3         1 CB7       0.013861
     87 H29         -5.4060    -4.1250     1.6160 h2         1 CB7       0.069713
     88 H30         -4.3370    -3.3360     2.8240 h2         1 CB7       0.069713
     89 C31         -4.7450    -0.8940    -1.9850 c          1 CB7       0.476804
     90 C32         -4.6940    -1.0060     1.9940 c          1 CB7       0.476804
     91 C33         -5.5520    -1.9180    -0.0120 c3         1 CB7      -0.117285
     92 H31         -6.4590    -2.5410    -0.0580 h2         1 CB7       0.133184
     93 C34         -5.8610    -0.3800     0.0360 c3         1 CB7      -0.117285
     94 H32         -6.9380    -0.1570     0.0950 h2         1 CB7       0.133184
     95 C35         -5.5490     1.4340    -1.7440 c3         1 CB7       0.013861
     96 H33         -5.3280     1.3890    -2.8130 h2         1 CB7       0.069713
     97 H34         -6.6050     1.7050    -1.5900 h2         1 CB7       0.069713
     98 C36         -5.3890     1.3580     1.8490 c3         1 CB7       0.013861
     99 H35         -5.0870     1.2690     2.8960 h2         1 CB7       0.069713
    100 H36         -6.4550     1.6300     1.7890 h2         1 CB7       0.069713
    101 C37         -3.7520     3.1200    -1.9640 c          1 CB7       0.476804
    102 C38         -3.6170     3.0710     2.0160 c          1 CB7       0.476804
    103 C39         -4.9590     3.1410     0.0700 c3         1 CB7      -0.117285
    104 H37         -6.0110     3.4610     0.1250 h2         1 CB7       0.133184
    105 C40         -3.9490     4.3430     0.0500 c3         1 CB7      -0.117285
    106 H38         -4.4460     5.3260     0.0580 h2         1 CB7       0.133184
    107 C41         -2.3600     5.1530    -1.7820 c3         1 CB7       0.013861
    108 H39         -2.2750     4.9090    -2.8440 h2         1 CB7       0.069713
    109 H40         -2.8130     6.1490    -1.6610 h2         1 CB7       0.069713
    110 C42         -2.2750     5.1380     1.8140 c3         1 CB7       0.013861
    111 H41         -2.7220     6.1400     1.7200 h2         1 CB7       0.069713
    112 H42         -2.1390     4.8890     2.8690 h2         1 CB7       0.069713
    113 O1           0.1860     4.4410     3.1150 o          1 CB7      -0.448890
    114 O2           0.0370     4.3020    -3.1250 o          1 CB7      -0.448890
    115 O3           3.4700     2.5370    -3.1270 o          1 CB7      -0.448890
    116 O4           3.5110     2.7390     3.1140 o          1 CB7      -0.448890
    117 O5          -3.2420     2.7710     3.1300 o          1 CB7      -0.448890
    118 O6           4.3310    -1.1500    -3.1110 o          1 CB7      -0.448890
    119 O7           4.1480    -1.0130     3.1300 o          1 CB7      -0.448890
    120 O8           1.8900    -3.9790    -3.1170 o          1 CB7      -0.448890
    121 O9           1.7020    -3.9950     3.1220 o          1 CB7      -0.448890
    122 O10         -1.9410    -3.7840    -3.1310 o          1 CB7      -0.448890
    123 O11         -2.0580    -3.9990     3.1110 o          1 CB7      -0.448890
    124 O12         -4.3290    -0.7790    -3.1180 o          1 CB7      -0.448890
    125 O13         -4.2480    -0.9480     3.1210 o          1 CB7      -0.448890
    126 O14         -3.4580     2.8570    -3.1110 o          1 CB7      -0.448890
@<TRIPOS>BOND
     1     1    29 1   
     2     1    31 1   
     3     1   107 1   
     4     2    30 1   
     5     2    31 1   
     6     2   110 1   
     7     3    29 1   
     8     3    33 1   
     9     3    35 1   
    10     4    30 1   
    11     4    33 1   
    12     4    38 1   
    13     5    35 1   
    14     5    41 1   
    15     5    43 1   
    16     6    38 1   
    17     6    42 1   
    18     6    43 1   
    19     7    41 1   
    20     7    45 1   
    21     7    47 1   
    22     8    42 1   
    23     8    45 1   
    24     8    50 1   
    25     9    47 1   
    26     9    53 1   
    27     9    55 1   
    28    10    50 1   
    29    10    54 1   
    30    10    55 1   
    31    11    53 1   
    32    11    57 1   
    33    11    59 1   
    34    12    54 1   
    35    12    57 1   
    36    12    62 1   
    37    13    59 1   
    38    13    65 1   
    39    13    67 1   
    40    14    62 1   
    41    14    66 1   
    42    14    67 1   
    43    15    65 1   
    44    15    69 1   
    45    15    71 1   
    46    16    66 1   
    47    16    69 1   
    48    16    74 1   
    49    17    71 1   
    50    17    77 1   
    51    17    79 1   
    52    18    74 1   
    53    18    78 1   
    54    18    79 1   
    55    19    77 1   
    56    19    81 1   
    57    19    83 1   
    58    20    78 1   
    59    20    81 1   
    60    20    86 1   
    61    21    83 1   
    62    21    89 1   
    63    21    91 1   
    64    22    86 1   
    65    22    90 1   
    66    22    91 1   
    67    23    89 1   
    68    23    93 1   
    69    23    95 1   
    70    24    90 1   
    71    24    93 1   
    72    24    98 1   
    73    25    95 1   
    74    25   101 1   
    75    25   103 1   
    76    26    98 1   
    77    26   102 1   
    78    26   103 1   
    79    27   101 1   
    80    27   105 1   
    81    27   107 1   
    82    28   102 1   
    83    28   105 1   
    84    28   110 1   
    85    29   114 2   
    86    30   113 2   
    87    31    32 1   
    88    31    33 1   
    89    33    34 1   
    90    35    36 1   
    91    35    37 1   
    92    38    39 1   
    93    38    40 1   
    94    41   115 2   
    95    42   116 2   
    96    43    44 1   
    97    43    45 1   
    98    45    46 1   
    99    47    48 1   
   100    47    49 1   
   101    50    51 1   
   102    50    52 1   
   103    53   118 2   
   104    54   119 2   
   105    55    56 1   
   106    55    57 1   
   107    57    58 1   
   108    59    60 1   
   109    59    61 1   
   110    62    63 1   
   111    62    64 1   
   112    65   120 2   
   113    66   121 2   
   114    67    68 1   
   115    67    69 1   
   116    69    70 1   
   117    71    72 1   
   118    71    73 1   
   119    74    75 1   
   120    74    76 1   
   121    77   122 2   
   122    78   123 2   
   123    79    80 1   
   124    79    81 1   
   125    81    82 1   
   126    83    84 1   
   127    83    85 1   
   128    86    87 1   
   129    86    88 1   
   130    89   124 2   
   131    90   125 2   
   132    91    92 1   
   133    91    93 1   
   134    93    94 1   
   135    95    96 1   
   136    95    97 1   
   137    98    99 1   
   138    98   100 1   
   139   101   126 2   
   140   102   117 2   
   141   103   104 1   
   142   103   105 1   
   143   105   106 1   
   144   107   108 1   
   145   107   109 1   
   146   110   111 1   
   147   110   112 1   
@<TRIPOS>SUBSTRUCTURE
     1 CB7         1 TEMP              0 ****  ****    0 ROOT
