@<TRIPOS>MOLECULE
CB8
  144   168     1     0     0
SMALL
resp


@<TRIPOS>ATOM
      1 O1           4.9930    -1.1470    -3.1320 o          1 CB8      -0.450760
      2 C1           5.4190    -1.2480    -2.0000 c          1 CB8       0.484966
      3 N1           5.9930    -0.2310    -1.2400 n          1 CB8      -0.129499
      4 C2           6.5840    -0.7170    -0.0130 c3         1 CB8      -0.077915
      5 C3           6.2880     1.0580    -1.8230 c3         1 CB8       0.069146
      6 N2           5.5890     2.1760    -1.2310 n          1 CB8      -0.129499
      7 C4           5.9930     2.8180     0.0010 c3         1 CB8      -0.077915
      8 C5           4.7300     2.9670    -1.9910 c          1 CB8       0.484966
      9 O2           4.3670     2.7470    -3.1280 o          1 CB8      -0.450760
     10 N3           4.4150     4.0870    -1.2260 n          1 CB8      -0.129499
     11 C6           5.1620     4.1480     0.0090 c3         1 CB8      -0.077915
     12 C7           3.7160     5.2120    -1.8050 c3         1 CB8       0.069146
     13 N4           2.4260     5.5040    -1.2220 n          1 CB8      -0.129499
     14 C8           2.2450     6.2300     0.0160 c3         1 CB8      -0.077915
     15 C9           1.2640     5.4480    -1.9870 c          1 CB8       0.484966
     16 O3           1.1710     5.0400    -3.1260 o          1 CB8      -0.450760
     17 N5           0.2400     6.0040    -1.2240 n          1 CB8      -0.129499
     18 C10          0.7170     6.5830     0.0120 c3         1 CB8      -0.077915
     19 C11         -1.0460     6.3060    -1.8120 c3         1 CB8       0.069146
     20 N6          -2.1690     5.6040    -1.2330 n          1 CB8      -0.129499
     21 C12         -2.8180     5.9930    -0.0010 c3         1 CB8      -0.077915
     22 C13         -2.9420     4.7310    -1.9960 c          1 CB8       0.484966
     23 O4          -2.7080     4.3680    -3.1300 o          1 CB8      -0.450760
     24 N7          -4.0630     4.4020    -1.2380 n          1 CB8      -0.129499
     25 C14         -4.1480     5.1620    -0.0100 c3         1 CB8      -0.077915
     26 C15         -5.1800     3.7010    -1.8300 c3         1 CB8       0.069146
     27 N8          -5.4810     2.4150    -1.2420 n          1 CB8      -0.129499
     28 C16         -6.2300     2.2450    -0.0160 c3         1 CB8      -0.077915
     29 C17         -5.4190     1.2480    -2.0000 c          1 CB8       0.484966
     30 O5          -4.9940     1.1470    -3.1320 o          1 CB8      -0.450760
     31 N9          -5.9930     0.2320    -1.2400 n          1 CB8      -0.129499
     32 C18         -6.5840     0.7170    -0.0130 c3         1 CB8      -0.077915
     33 C19         -6.2870    -1.0580    -1.8230 c3         1 CB8       0.069146
     34 N10         -5.5890    -2.1760    -1.2300 n          1 CB8      -0.129499
     35 C20         -5.9930    -2.8180     0.0010 c3         1 CB8      -0.077915
     36 C21         -4.7290    -2.9670    -1.9900 c          1 CB8       0.484966
     37 O6          -4.3660    -2.7470    -3.1270 o          1 CB8      -0.450760
     38 N11         -4.4150    -4.0870    -1.2250 n          1 CB8      -0.129499
     39 C22         -5.1620    -4.1480     0.0100 c3         1 CB8      -0.077915
     40 C23         -3.7160    -5.2120    -1.8040 c3         1 CB8       0.069146
     41 N12         -2.4260    -5.5040    -1.2200 n          1 CB8      -0.129499
     42 C24         -2.2450    -6.2300     0.0170 c3         1 CB8      -0.077915
     43 C25         -1.2630    -5.4490    -1.9860 c          1 CB8       0.484966
     44 O7          -1.1710    -5.0410    -3.1250 o          1 CB8      -0.450760
     45 N13         -0.2390    -6.0050    -1.2220 n          1 CB8      -0.129499
     46 C26         -0.7170    -6.5830     0.0140 c3         1 CB8      -0.077915
     47 C27          1.0460    -6.3070    -1.8100 c3         1 CB8       0.069146
     48 N14          2.1700    -5.6060    -1.2320 n          1 CB8      -0.129499
     49 C28          2.8180    -5.9930    -0.0000 c3         1 CB8      -0.077915
     50 C29          2.9410    -4.7320    -1.9960 c          1 CB8       0.484966
     51 O8           2.7070    -4.3700    -3.1300 o          1 CB8      -0.450760
     52 N15          4.0620    -4.4020    -1.2370 n          1 CB8      -0.129499
     53 C30          5.1780    -3.7000    -1.8300 c3         1 CB8       0.069146
     54 C31          4.1480    -5.1620    -0.0100 c3         1 CB8      -0.077915
     55 N16          5.4800    -2.4150    -1.2410 n          1 CB8      -0.129499
     56 C32          6.2300    -2.2450    -0.0170 c3         1 CB8      -0.077915
     57 N17          5.5060    -2.4260     1.2220 n          1 CB8      -0.129499
     58 C33          5.2130    -3.7160     1.8050 c3         1 CB8       0.069146
     59 C34          5.4490    -1.2640     1.9870 c          1 CB8       0.484966
     60 O9           5.0420    -1.1710     3.1260 o          1 CB8      -0.450760
     61 N18          6.0040    -0.2400     1.2230 n          1 CB8      -0.129499
     62 C35          6.3060     1.0460     1.8110 c3         1 CB8       0.069146
     63 N19          5.6050     2.1690     1.2320 n          1 CB8      -0.129499
     64 C36          4.7320     2.9410     1.9950 c          1 CB8       0.484966
     65 O10          4.3680     2.7080     3.1290 o          1 CB8      -0.450760
     66 N20          4.4020     4.0620     1.2370 n          1 CB8      -0.129499
     67 C37          3.7010     5.1790     1.8290 c3         1 CB8       0.069146
     68 N21          2.4150     5.4810     1.2410 n          1 CB8      -0.129499
     69 C38          1.2480     5.4190     1.9990 c          1 CB8       0.484966
     70 O11          1.1480     4.9950     3.1310 o          1 CB8      -0.450760
     71 N22          0.2320     5.9930     1.2390 n          1 CB8      -0.129499
     72 C39         -1.0580     6.2880     1.8220 c3         1 CB8       0.069146
     73 N23         -2.1760     5.5890     1.2300 n          1 CB8      -0.129499
     74 C40         -2.9660     4.7300     1.9900 c          1 CB8       0.484966
     75 O12         -2.7460     4.3670     3.1270 o          1 CB8      -0.450760
     76 N24         -4.0870     4.4140     1.2250 n          1 CB8      -0.129499
     77 C41         -5.2120     3.7160     1.8040 c3         1 CB8       0.069146
     78 N25         -5.5050     2.4260     1.2210 n          1 CB8      -0.129499
     79 C42         -5.4490     1.2630     1.9870 c          1 CB8       0.484966
     80 O13         -5.0410     1.1710     3.1260 o          1 CB8      -0.450760
     81 N26         -6.0050     0.2400     1.2230 n          1 CB8      -0.129499
     82 C43         -6.3070    -1.0460     1.8110 c3         1 CB8       0.069146
     83 N27         -5.6050    -2.1700     1.2330 n          1 CB8      -0.129499
     84 C44         -4.7320    -2.9410     1.9960 c          1 CB8       0.484966
     85 O14         -4.3690    -2.7070     3.1300 o          1 CB8      -0.450760
     86 N28         -4.4020    -4.0620     1.2380 n          1 CB8      -0.129499
     87 C45         -3.7010    -5.1790     1.8310 c3         1 CB8       0.069146
     88 N29         -2.4150    -5.4810     1.2430 n          1 CB8      -0.129499
     89 C46         -1.2480    -5.4190     2.0010 c          1 CB8       0.484966
     90 O15         -1.1480    -4.9930     3.1320 o          1 CB8      -0.450760
     91 N30         -0.2320    -5.9920     1.2410 n          1 CB8      -0.129499
     92 C47          1.0580    -6.2860     1.8240 c3         1 CB8       0.069146
     93 N31          2.1760    -5.5880     1.2310 n          1 CB8      -0.129499
     94 C48          2.9670    -4.7290     1.9910 c          1 CB8       0.484966
     95 N32          4.0880    -4.4140     1.2260 n          1 CB8      -0.129499
     96 O16          2.7470    -4.3660     3.1270 o          1 CB8      -0.450760
     97 H1           7.6680    -0.5240    -0.0170 h2         1 CB8       0.123377
     98 H2           5.9820     1.0110    -2.8710 h2         1 CB8       0.055092
     99 H3           7.3730     1.2390    -1.7580 h2         1 CB8       0.055092
    100 H4           7.0820     2.9880    -0.0060 h2         1 CB8       0.123377
    101 H5           5.7920     5.0530     0.0220 h2         1 CB8       0.123377
    102 H6           3.5420     4.9720    -2.8570 h2         1 CB8       0.055092
    103 H7           4.3540     6.1070    -1.7260 h2         1 CB8       0.055092
    104 H8           2.8950     7.1190     0.0270 h2         1 CB8       0.123377
    105 H9           0.5240     7.6680     0.0160 h2         1 CB8       0.123377
    106 H10         -0.9930     6.0090    -2.8620 h2         1 CB8       0.055092
    107 H11         -1.2270     7.3900    -1.7380 h2         1 CB8       0.055092
    108 H12         -2.9880     7.0820     0.0050 h2         1 CB8       0.123377
    109 H13         -5.0530     5.7920    -0.0220 h2         1 CB8       0.123377
    110 H14         -6.0760     4.3400    -1.7700 h2         1 CB8       0.055092
    111 H15         -4.9220     3.5190    -2.8760 h2         1 CB8       0.055092
    112 H16         -7.1190     2.8950    -0.0270 h2         1 CB8       0.123377
    113 H17         -7.6690     0.5240    -0.0170 h2         1 CB8       0.123377
    114 H18         -7.3730    -1.2390    -1.7580 h2         1 CB8       0.055092
    115 H19         -5.9810    -1.0110    -2.8700 h2         1 CB8       0.055092
    116 H20         -7.0820    -2.9880    -0.0060 h2         1 CB8       0.123377
    117 H21         -5.7920    -5.0520     0.0230 h2         1 CB8       0.123377
    118 H22         -4.3540    -6.1080    -1.7250 h2         1 CB8       0.055092
    119 H23         -3.5420    -4.9720    -2.8550 h2         1 CB8       0.055092
    120 H24         -2.8950    -7.1190     0.0280 h2         1 CB8       0.123377
    121 H25         -0.5240    -7.6680     0.0190 h2         1 CB8       0.123377
    122 H26          1.2270    -7.3920    -1.7360 h2         1 CB8       0.055092
    123 H27          0.9920    -6.0120    -2.8610 h2         1 CB8       0.055092
    124 H28          2.9880    -7.0820     0.0070 h2         1 CB8       0.123377
    125 H29          4.9200    -3.5190    -2.8760 h2         1 CB8       0.055092
    126 H30          6.0750    -4.3390    -1.7710 h2         1 CB8       0.055092
    127 H31          5.0530    -5.7920    -0.0220 h2         1 CB8       0.123377
    128 H32          7.1190    -2.8950    -0.0290 h2         1 CB8       0.123377
    129 H33          6.1080    -4.3550     1.7250 h2         1 CB8       0.055092
    130 H34          4.9730    -3.5430     2.8560 h2         1 CB8       0.055092
    131 H35          7.3910     1.2270     1.7370 h2         1 CB8       0.055092
    132 H36          6.0100     0.9920     2.8610 h2         1 CB8       0.055092
    133 H37          4.3400     6.0750     1.7700 h2         1 CB8       0.055092
    134 H38          3.5190     4.9220     2.8750 h2         1 CB8       0.055092
    135 H39         -1.2390     7.3730     1.7570 h2         1 CB8       0.055092
    136 H40         -1.0110     5.9820     2.8700 h2         1 CB8       0.055092
    137 H41         -4.9720     3.5420     2.8560 h2         1 CB8       0.055092
    138 H42         -6.1070     4.3550     1.7260 h2         1 CB8       0.055092
    139 H43         -6.0110    -0.9920     2.8620 h2         1 CB8       0.055092
    140 H44         -7.3920    -1.2270     1.7370 h2         1 CB8       0.055092
    141 H45         -3.5190    -4.9210     2.8770 h2         1 CB8       0.055092
    142 H46         -4.3400    -6.0750     1.7720 h2         1 CB8       0.055092
    143 H47          1.0110    -5.9800     2.8710 h2         1 CB8       0.055092
    144 H48          1.2390    -7.3720     1.7590 h2         1 CB8       0.055092
@<TRIPOS>BOND
     1     1     2 2   
     2     2     3 1   
     3     2    55 1   
     4     3     4 1   
     5     3     5 1   
     6     4    56 1   
     7     4    61 1   
     8     4    97 1   
     9     5     6 1   
    10     5    98 1   
    11     5    99 1   
    12     6     7 1   
    13     6     8 1   
    14     7    11 1   
    15     7    63 1   
    16     7   100 1   
    17     8     9 2   
    18     8    10 1   
    19    10    11 1   
    20    10    12 1   
    21    11    66 1   
    22    11   101 1   
    23    12    13 1   
    24    12   102 1   
    25    12   103 1   
    26    13    14 1   
    27    13    15 1   
    28    14    18 1   
    29    14    68 1   
    30    14   104 1   
    31    15    16 2   
    32    15    17 1   
    33    17    18 1   
    34    17    19 1   
    35    18    71 1   
    36    18   105 1   
    37    19    20 1   
    38    19   106 1   
    39    19   107 1   
    40    20    21 1   
    41    20    22 1   
    42    21    25 1   
    43    21    73 1   
    44    21   108 1   
    45    22    23 2   
    46    22    24 1   
    47    24    25 1   
    48    24    26 1   
    49    25    76 1   
    50    25   109 1   
    51    26    27 1   
    52    26   110 1   
    53    26   111 1   
    54    27    28 1   
    55    27    29 1   
    56    28    32 1   
    57    28    78 1   
    58    28   112 1   
    59    29    30 2   
    60    29    31 1   
    61    31    32 1   
    62    31    33 1   
    63    32    81 1   
    64    32   113 1   
    65    33    34 1   
    66    33   114 1   
    67    33   115 1   
    68    34    35 1   
    69    34    36 1   
    70    35    39 1   
    71    35    83 1   
    72    35   116 1   
    73    36    37 2   
    74    36    38 1   
    75    38    39 1   
    76    38    40 1   
    77    39    86 1   
    78    39   117 1   
    79    40    41 1   
    80    40   118 1   
    81    40   119 1   
    82    41    42 1   
    83    41    43 1   
    84    42    46 1   
    85    42    88 1   
    86    42   120 1   
    87    43    44 2   
    88    43    45 1   
    89    45    46 1   
    90    45    47 1   
    91    46    91 1   
    92    46   121 1   
    93    47    48 1   
    94    47   122 1   
    95    47   123 1   
    96    48    49 1   
    97    48    50 1   
    98    49    54 1   
    99    49    93 1   
   100    49   124 1   
   101    50    51 2   
   102    50    52 1   
   103    52    53 1   
   104    52    54 1   
   105    53    55 1   
   106    53   125 1   
   107    53   126 1   
   108    54    95 1   
   109    54   127 1   
   110    55    56 1   
   111    56    57 1   
   112    56   128 1   
   113    57    58 1   
   114    57    59 1   
   115    58    95 1   
   116    58   129 1   
   117    58   130 1   
   118    59    60 2   
   119    59    61 1   
   120    61    62 1   
   121    62    63 1   
   122    62   131 1   
   123    62   132 1   
   124    63    64 1   
   125    64    65 2   
   126    64    66 1   
   127    66    67 1   
   128    67    68 1   
   129    67   133 1   
   130    67   134 1   
   131    68    69 1   
   132    69    70 2   
   133    69    71 1   
   134    71    72 1   
   135    72    73 1   
   136    72   135 1   
   137    72   136 1   
   138    73    74 1   
   139    74    75 2   
   140    74    76 1   
   141    76    77 1   
   142    77    78 1   
   143    77   137 1   
   144    77   138 1   
   145    78    79 1   
   146    79    80 2   
   147    79    81 1   
   148    81    82 1   
   149    82    83 1   
   150    82   139 1   
   151    82   140 1   
   152    83    84 1   
   153    84    85 2   
   154    84    86 1   
   155    86    87 1   
   156    87    88 1   
   157    87   141 1   
   158    87   142 1   
   159    88    89 1   
   160    89    90 2   
   161    89    91 1   
   162    91    92 1   
   163    92    93 1   
   164    92   143 1   
   165    92   144 1   
   166    93    94 1   
   167    94    95 1   
   168    94    96 2   
@<TRIPOS>SUBSTRUCTURE
     1 CB8         1 TEMP              0 ****  ****    0 ROOT
