@<TRIPOS>MOLECULE
OA0
  184   204     1     0     0
SMALL
resp


@<TRIPOS>ATOM
      1 C1          -2.9300     1.4650     3.2460 ca         1 OA0      -0.050006
      2 C2          -3.9130    -0.8750     2.0170 ca         1 OA0       0.168460
      3 C3          -2.7420     0.1880     3.8070 ca         1 OA0      -0.261117
      4 C4          -3.6390     1.5190     2.0320 ca         1 OA0       0.168460
      5 C5          -4.1430     0.3680     1.4420 ca         1 OA0      -0.173919
      6 C6          -3.2000    -1.0070     3.2200 ca         1 OA0      -0.050006
      7 O1          -4.3900    -1.9750     1.3040 os         1 OA0      -0.365953
      8 C7          -2.9200    -2.4090     3.7910 c3         1 OA0       0.162227
      9 C8          -3.4050    -2.6380     0.5350 c3         1 OA0       0.388059
     10 O2          -2.9160    -3.7850     1.2030 os         1 OA0      -0.365953
     11 C9          -1.7100    -3.5890     1.8800 ca         1 OA0       0.168460
     12 C10         -1.6380    -2.9590     3.1350 ca         1 OA0      -0.050006
     13 C11         -0.3470    -2.8050     3.6770 ca         1 OA0      -0.261117
     14 C12         -0.5670    -4.0170     1.2160 ca         1 OA0      -0.173919
     15 C13          0.8380    -3.2040     3.0310 ca         1 OA0      -0.050006
     16 C14          0.6910    -3.8070     1.7670 ca         1 OA0       0.168460
     17 O3           1.7720    -4.2150     0.9780 os         1 OA0      -0.365953
     18 C15          2.2460    -2.9930     3.6200 c3         1 OA0       0.162227
     19 C16          2.8190    -1.6570     3.1100 ca         1 OA0      -0.050006
     20 C17          3.4830    -1.6510     1.8720 ca         1 OA0       0.168460
     21 C18          2.4870    -3.1590     0.3590 c3         1 OA0       0.388059
     22 O4           3.6370    -2.8130     1.1140 os         1 OA0      -0.365953
     23 O5          -3.8500     2.7060     1.3200 os         1 OA0      -0.365953
     24 C19         -2.3760     2.7630     3.8630 c3         1 OA0       0.162227
     25 C20         -0.9780     3.0380     3.2780 ca         1 OA0      -0.050006
     26 O6          -2.0310     4.1730     1.3830 os         1 OA0      -0.365953
     27 C21         -0.8930     3.7160     2.0510 ca         1 OA0       0.168460
     28 C22          3.9640    -0.4790     1.3070 ca         1 OA0      -0.173919
     29 C23          3.7480     0.7330     1.9460 ca         1 OA0       0.168460
     30 C24          0.3230     3.9290     1.4170 ca         1 OA0      -0.173919
     31 C25          1.4960     3.4360     1.9720 ca         1 OA0       0.168460
     32 O7           4.1680     1.8750     1.2600 os         1 OA0      -0.365953
     33 O8           2.6560     3.6530     1.2190 os         1 OA0      -0.365953
     34 C26          3.1390     2.5150     0.5260 c3         1 OA0       0.388059
     35 C27          0.2370     2.5870     3.8270 ca         1 OA0      -0.261117
     36 C28          1.4900     2.7520     3.2050 ca         1 OA0      -0.050006
     37 C29          2.6580    -0.4080     3.7430 ca         1 OA0      -0.261117
     38 C30          2.8140     2.2070     3.7760 c3         1 OA0       0.162227
     39 C31          3.0900     0.8110     3.1840 ca         1 OA0      -0.050006
     40 C32         -2.7050     3.1770     0.6320 c3         1 OA0       0.388059
     41 C33          2.3680    -3.2620     5.1420 c3         1 OA0       0.059018
     42 C34          3.8130    -3.5020     5.6230 c3         1 OA0      -0.013396
     43 C35          3.9880    -4.5650     6.7860 c          1 OA0       0.815779
     44 O9           2.9920    -5.2810     7.0640 o          1 OA0      -0.830516
     45 C36         -2.9550    -2.4680     5.3350 c3         1 OA0       0.059018
     46 C37         -3.0950    -3.8890     5.9160 c3         1 OA0      -0.013396
     47 C38         -4.5630    -4.4630     5.9850 c          1 OA0       0.815779
     48 O10         -4.6840    -5.5190     6.6630 o          1 OA0      -0.830516
     49 C39         -2.5240     2.8690     5.4030 c3         1 OA0       0.059018
     50 C40         -2.4290     4.3090     5.9470 c3         1 OA0      -0.013396
     51 C41         -3.3760     4.6510     7.1710 c          1 OA0       0.815779
     52 O11         -3.1560     5.7760     7.6970 o          1 OA0      -0.830516
     53 C42          2.9800     2.3510     5.3100 c3         1 OA0       0.059018
     54 C43          4.4380     2.2120     5.7980 c3         1 OA0      -0.013396
     55 C44          4.8720     3.1900     6.9670 c          1 OA0       0.815779
     56 O12          4.1000     4.1480     7.2310 o          1 OA0      -0.830516
     57 C45         -3.9680    -3.0140    -0.8330 ca         1 OA0       0.214901
     58 C46         -4.7990    -3.5280    -3.4480 ca         1 OA0      -0.552389
     59 C47         -3.4070    -4.0840    -1.5410 ca         1 OA0      -0.499609
     60 C48         -4.9550    -2.2100    -1.4180 ca         1 OA0      -0.499609
     61 C49         -5.3690    -2.4770    -2.7260 ca         1 OA0       0.530517
     62 C50         -3.8310    -4.3360    -2.8480 ca         1 OA0       0.530517
     63 C51         -3.0720     3.7160    -0.7500 ca         1 OA0       0.214901
     64 C52         -3.4390     4.4750    -3.4100 ca         1 OA0      -0.552389
     65 C53         -2.3510     4.7940    -1.2700 ca         1 OA0      -0.499609
     66 C54         -4.0000     3.0220    -1.5470 ca         1 OA0      -0.499609
     67 C55         -4.1690     3.3990    -2.8820 ca         1 OA0       0.530517
     68 C56         -2.5480     5.1710    -2.6010 ca         1 OA0       0.530517
     69 C57          3.6320     2.8860    -0.8730 ca         1 OA0       0.214901
     70 C58          4.2990     3.2770    -3.5510 ca         1 OA0      -0.552389
     71 C59          4.7060     2.1790    -1.4290 ca         1 OA0      -0.499609
     72 C60          2.9000     3.8090    -1.6420 ca         1 OA0      -0.499609
     73 C61          3.2330     3.9900    -2.9880 ca         1 OA0       0.530517
     74 C62          5.0400     2.3920    -2.7720 ca         1 OA0       0.530517
     75 C63          2.8740    -3.5210    -1.0750 ca         1 OA0       0.214901
     76 C64          3.4030    -3.8350    -3.7940 ca         1 OA0      -0.552389
     77 C65          4.0880    -3.0610    -1.6010 ca         1 OA0      -0.499609
     78 C66          1.9290    -4.1600    -1.8970 ca         1 OA0      -0.499609
     79 C67          2.1950    -4.2990    -3.2610 ca         1 OA0       0.530517
     80 C68          4.3490    -3.2360    -2.9650 ca         1 OA0       0.530517
     81 O13         -4.9990     2.7980    -3.7990 os         1 OA0      -0.368084
     82 O14          2.5970     4.8150    -3.8860 os         1 OA0      -0.368084
     83 O15          6.1830     1.8970    -3.3660 os         1 OA0      -0.368084
     84 O16         -6.4280    -1.8390    -3.3390 os         1 OA0      -0.368084
     85 O17         -3.4420    -5.4390    -3.5800 os         1 OA0      -0.368084
     86 O18          5.5770    -2.9930    -3.5470 os         1 OA0      -0.368084
     87 O19          1.3430    -4.8300    -4.2050 os         1 OA0      -0.368084
     88 C69          1.6540     5.8090    -3.6080 ca         1 OA0       0.345171
     89 C70         -0.2420     7.8310    -3.5670 ca         1 OA0      -0.381096
     90 C71          0.3250     5.4760    -3.3030 ca         1 OA0      -0.358648
     91 C72          2.0340     7.1210    -3.8840 ca         1 OA0      -0.381096
     92 C73          1.0820     8.1490    -3.8780 ca         1 OA0       0.107244
     93 C74         -0.6170     6.5130    -3.2890 ca         1 OA0       0.345171
     94 O20         -1.9850     6.3200    -3.1280 os         1 OA0      -0.368084
     95 C75         -6.6480    -0.4650    -3.3540 ca         1 OA0       0.345171
     96 C76         -7.3010     2.2120    -3.7500 ca         1 OA0      -0.381096
     97 C77         -7.9780    -0.0870    -3.5620 ca         1 OA0      -0.381096
     98 C78         -5.6210     0.4890    -3.3390 ca         1 OA0      -0.358648
     99 C79         -5.9760     1.8310    -3.5440 ca         1 OA0       0.345171
    100 C80         -8.3180     1.2500    -3.7750 ca         1 OA0       0.107244
    101 C81          6.5960     0.5710    -3.4340 ca         1 OA0       0.345171
    102 C82          7.6400    -1.9600    -3.8970 ca         1 OA0      -0.381096
    103 C83          7.9340     0.4210    -3.8100 ca         1 OA0      -0.381096
    104 C84          5.7500    -0.5390    -3.2780 ca         1 OA0      -0.358648
    105 C85          6.3030    -1.8070    -3.5210 ca         1 OA0       0.345171
    106 C86          8.4680    -0.8460    -4.0570 ca         1 OA0       0.107244
    107 C87          9.9380    -1.0100    -4.5510 c          1 OA0       0.781279
    108 O21         10.5900     0.0590    -4.6900 o          1 OA0      -0.796305
    109 C88         -0.6760    -9.3070    -4.7830 c          1 OA0       0.781279
    110 O22         -1.7640    -9.9380    -4.8250 o          1 OA0      -0.796305
    111 C89         -9.7870     1.6490    -4.1190 c          1 OA0       0.781279
    112 O23         -9.9790     2.8730    -4.3400 o          1 OA0      -0.796305
    113 O24          5.1450    -4.6030     7.2830 o          1 OA0      -0.830516
    114 O25          5.9890     2.9170     7.4840 o          1 OA0      -0.830516
    115 O26         -4.2600     3.8070     7.4690 o          1 OA0      -0.830516
    116 C90          1.4700     9.6030    -4.2870 c          1 OA0       0.781279
    117 O27          0.5290    10.4400    -4.2820 o          1 OA0      -0.796305
    118 O28          0.4790    -9.7020    -5.0900 o          1 OA0      -0.796305
    119 O29         10.3110    -2.1920    -4.7740 o          1 OA0      -0.796305
    120 O30          2.6780     9.7760    -4.5970 o          1 OA0      -0.796305
    121 O31        -10.6120     0.6990    -4.1600 o          1 OA0      -0.796305
    122 O32         -5.4520    -3.8210     5.3660 o          1 OA0      -0.830516
    123 C91         -2.1350    -5.9070    -3.6890 ca         1 OA0       0.345171
    124 C92          0.3570    -7.0010    -4.2780 ca         1 OA0      -0.381096
    125 C93         -1.0090    -5.0740    -3.6600 ca         1 OA0      -0.358648
    126 C94         -2.0190    -7.2630    -4.0060 ca         1 OA0      -0.381096
    127 C95         -0.7770    -7.8220    -4.3160 ca         1 OA0       0.107244
    128 C96          0.2350    -5.6480    -3.9630 ca         1 OA0       0.345171
    129 H1          -2.1980     0.1210     4.7440 ha         1 OA0       0.158002
    130 H2          -4.6910     0.4380     0.5080 ha         1 OA0       0.089106
    131 H3          -3.7510    -3.0410     3.4610 hc         1 OA0       0.072152
    132 H4          -2.5660    -1.9470     0.3750 h2         1 OA0       0.011594
    133 H5          -0.2540    -2.3360     4.6510 ha         1 OA0       0.158002
    134 H6          -0.6540    -4.4950     0.2460 ha         1 OA0       0.089106
    135 H7           2.8620    -3.7610     3.1400 hc         1 OA0       0.072152
    136 H8           1.8300    -2.2810     0.3140 h2         1 OA0       0.011594
    137 H9          -3.0110     3.5560     3.4550 hc         1 OA0       0.072152
    138 H10          4.4570    -0.5050     0.3410 ha         1 OA0       0.089106
    139 H11          0.3540     4.4520     0.4670 ha         1 OA0       0.089106
    140 H12          2.3080     1.8070     0.4080 h2         1 OA0       0.011594
    141 H13          0.2080     2.0670     4.7810 ha         1 OA0       0.158002
    142 H14          2.1480    -0.3810     4.7020 ha         1 OA0       0.158002
    143 H15          3.5860     2.8510     3.3410 hc         1 OA0       0.072152
    144 H16         -2.0180     2.3330     0.4870 h2         1 OA0       0.011594
    145 H17          1.8990    -2.4580     5.7260 hc         1 OA0      -0.008113
    146 H18          1.8070    -4.1740     5.3800 hc         1 OA0      -0.008113
    147 H19          4.4210    -3.8770     4.7840 hc         1 OA0      -0.054217
    148 H20          4.3010    -2.5710     5.9360 hc         1 OA0      -0.054217
    149 H21         -3.8320    -1.8940     5.6500 hc         1 OA0      -0.008113
    150 H22         -2.0710    -1.9690     5.7590 hc         1 OA0      -0.008113
    151 H23         -2.4750    -4.6020     5.3530 hc         1 OA0      -0.054217
    152 H24         -2.6930    -3.9080     6.9380 hc         1 OA0      -0.054217
    153 H25         -3.5180     2.5000     5.6810 hc         1 OA0      -0.008113
    154 H26         -1.8050     2.2160     5.9170 hc         1 OA0      -0.008113
    155 H27         -1.4020     4.5740     6.2270 hc         1 OA0      -0.054217
    156 H28         -2.7030     5.0200     5.1520 hc         1 OA0      -0.054217
    157 H29          2.6540     3.3560     5.6000 hc         1 OA0      -0.008113
    158 H30          2.3270     1.6490     5.8470 hc         1 OA0      -0.008113
    159 H31          4.6700     1.1860     6.1070 hc         1 OA0      -0.054217
    160 H32          5.1260     2.4230     4.9640 hc         1 OA0      -0.054217
    161 H33         -5.1340    -3.7380    -4.4580 ha         1 OA0       0.183847
    162 H34         -2.6760    -4.7260    -1.0660 ha         1 OA0       0.217413
    163 H35         -5.4160    -1.4140    -0.8470 ha         1 OA0       0.217413
    164 H36         -3.5900     4.7710    -4.4420 ha         1 OA0       0.183847
    165 H37         -1.6620     5.3430    -0.6400 ha         1 OA0       0.217413
    166 H38         -4.5690     2.2000    -1.1310 ha         1 OA0       0.217413
    167 H39          4.5650     3.4410    -4.5890 ha         1 OA0       0.183847
    168 H40          5.2860     1.5010    -0.8160 ha         1 OA0       0.217413
    169 H41          2.0880     4.3670    -1.1950 ha         1 OA0       0.217413
    170 H42          3.6120    -3.9670    -4.8490 ha         1 OA0       0.183847
    171 H43          4.8220    -2.6030    -0.9510 ha         1 OA0       0.217413
    172 H44          1.0000    -4.5260    -1.4770 ha         1 OA0       0.217413
    173 H45         -0.9840     8.6220    -3.5830 ha         1 OA0       0.174562
    174 H46          0.0330     4.4440    -3.1430 ha         1 OA0       0.151813
    175 H47          3.0570     7.3580    -4.1570 ha         1 OA0       0.174562
    176 H48         -7.5570     3.2470    -3.9490 ha         1 OA0       0.174562
    177 H49         -8.7610    -0.8360    -3.6060 ha         1 OA0       0.174562
    178 H50         -4.5800     0.1980    -3.2370 ha         1 OA0       0.151813
    179 H51          8.0420    -2.9460    -4.1020 ha         1 OA0       0.174562
    180 H52          8.5650     1.2920    -3.9470 ha         1 OA0       0.174562
    181 H53          4.7030    -0.4200    -3.0200 ha         1 OA0       0.151813
    182 H54          1.3170    -7.4250    -4.5520 ha         1 OA0       0.174562
    183 H55         -1.0960    -4.0090    -3.4750 ha         1 OA0       0.151813
    184 H56         -2.9000    -7.8930    -4.0620 ha         1 OA0       0.174562
@<TRIPOS>BOND
     1     1     3 ar  
     2     1     4 ar  
     3     1    24 1   
     4     2     5 ar  
     5     2     6 ar  
     6     2     7 1   
     7     3     6 ar  
     8     3   129 1   
     9     4     5 ar  
    10     4    23 1   
    11     5   130 1   
    12     6     8 1   
    13     7     9 1   
    14     8    12 1   
    15     8    45 1   
    16     8   131 1   
    17     9    10 1   
    18     9    57 1   
    19     9   132 1   
    20    10    11 1   
    21    11    12 ar  
    22    11    14 ar  
    23    12    13 ar  
    24    13    15 ar  
    25    13   133 1   
    26    14    16 ar  
    27    14   134 1   
    28    15    16 ar  
    29    15    18 1   
    30    16    17 1   
    31    17    21 1   
    32    18    19 1   
    33    18    41 1   
    34    18   135 1   
    35    19    20 ar  
    36    19    37 ar  
    37    20    22 1   
    38    20    28 ar  
    39    21    22 1   
    40    21    75 1   
    41    21   136 1   
    42    23    40 1   
    43    24    25 1   
    44    24    49 1   
    45    24   137 1   
    46    25    27 ar  
    47    25    35 ar  
    48    26    27 1   
    49    26    40 1   
    50    27    30 ar  
    51    28    29 ar  
    52    28   138 1   
    53    29    32 1   
    54    29    39 ar  
    55    30    31 ar  
    56    30   139 1   
    57    31    33 1   
    58    31    36 ar  
    59    32    34 1   
    60    33    34 1   
    61    34    69 1   
    62    34   140 1   
    63    35    36 ar  
    64    35   141 1   
    65    36    38 1   
    66    37    39 ar  
    67    37   142 1   
    68    38    39 1   
    69    38    53 1   
    70    38   143 1   
    71    40    63 1   
    72    40   144 1   
    73    41    42 1   
    74    41   145 1   
    75    41   146 1   
    76    42    43 1   
    77    42   147 1   
    78    42   148 1   
    79    43    44 1   
    80    43   113 1   
    81    45    46 1   
    82    45   149 1   
    83    45   150 1   
    84    46    47 1   
    85    46   151 1   
    86    46   152 1   
    87    47    48 1   
    88    47   122 1   
    89    49    50 1   
    90    49   153 1   
    91    49   154 1   
    92    50    51 1   
    93    50   155 1   
    94    50   156 1   
    95    51    52 1   
    96    51   115 1   
    97    53    54 1   
    98    53   157 1   
    99    53   158 1   
   100    54    55 1   
   101    54   159 1   
   102    54   160 1   
   103    55    56 1   
   104    55   114 1   
   105    57    59 ar  
   106    57    60 ar  
   107    58    61 ar  
   108    58    62 ar  
   109    58   161 1   
   110    59    62 ar  
   111    59   162 1   
   112    60    61 ar  
   113    60   163 1   
   114    61    84 1   
   115    62    85 1   
   116    63    65 ar  
   117    63    66 ar  
   118    64    67 ar  
   119    64    68 ar  
   120    64   164 1   
   121    65    68 ar  
   122    65   165 1   
   123    66    67 ar  
   124    66   166 1   
   125    67    81 1   
   126    68    94 1   
   127    69    71 ar  
   128    69    72 ar  
   129    70    73 ar  
   130    70    74 ar  
   131    70   167 1   
   132    71    74 ar  
   133    71   168 1   
   134    72    73 ar  
   135    72   169 1   
   136    73    82 1   
   137    74    83 1   
   138    75    77 ar  
   139    75    78 ar  
   140    76    79 ar  
   141    76    80 ar  
   142    76   170 1   
   143    77    80 ar  
   144    77   171 1   
   145    78    79 ar  
   146    78   172 1   
   147    79    87 1   
   148    80    86 1   
   149    81    99 1   
   150    82    88 1   
   151    83   101 1   
   152    84    95 1   
   153    85   123 1   
   154    86   105 1   
   155    87   128 1   
   156    88    90 ar  
   157    88    91 ar  
   158    89    92 ar  
   159    89    93 ar  
   160    89   173 1   
   161    90    93 ar  
   162    90   174 1   
   163    91    92 ar  
   164    91   175 1   
   165    92   116 1   
   166    93    94 1   
   167    95    97 ar  
   168    95    98 ar  
   169    96    99 ar  
   170    96   100 ar  
   171    96   176 1   
   172    97   100 ar  
   173    97   177 1   
   174    98    99 ar  
   175    98   178 1   
   176   100   111 1   
   177   101   103 ar  
   178   101   104 ar  
   179   102   105 ar  
   180   102   106 ar  
   181   102   179 1   
   182   103   106 ar  
   183   103   180 1   
   184   104   105 ar  
   185   104   181 1   
   186   106   107 1   
   187   107   108 1   
   188   107   119 1   
   189   109   110 1   
   190   109   118 1   
   191   109   127 1   
   192   111   112 1   
   193   111   121 1   
   194   116   117 1   
   195   116   120 1   
   196   123   125 ar  
   197   123   126 ar  
   198   124   127 ar  
   199   124   128 ar  
   200   124   182 1   
   201   125   128 ar  
   202   125   183 1   
   203   126   127 ar  
   204   126   184 1   
@<TRIPOS>SUBSTRUCTURE
     1 OA0         1 TEMP              0 ****  ****    0 ROOT
