@<TRIPOS>MOLECULE
SP6
  126   132     1     0     0
SMALL
resp


@<TRIPOS>ATOM
      1 C1           5.3970    -0.6940    -1.2040 ca         1 SP6       0.325950
      2 C2           5.3970     0.6940     1.2040 ca         1 SP6       0.325950
      3 C3           5.2510    -1.4590    -0.0210 ca         1 SP6       0.038008
      4 C4           5.3040     0.7100    -1.1720 ca         1 SP6      -0.367350
      5 C5           5.2510     1.4590     0.0210 ca         1 SP6       0.038008
      6 C6           5.3040    -0.7110     1.1710 ca         1 SP6      -0.367350
      7 H1           5.3170     1.2340    -2.1220 ha         1 SP6       0.239327
      8 H2           5.3170    -1.2350     2.1220 ha         1 SP6       0.239327
      9 C7           5.2200    -3.0140    -0.0010 c3         1 SP6      -0.279541
     10 H3           5.7870    -3.3350     0.8770 hc         1 SP6       0.165525
     11 H4           5.7820    -3.3440    -0.8790 hc         1 SP6       0.165525
     12 O1           5.5680    -1.3240    -2.4480 os         1 SP6      -0.380731
     13 O2           5.5690     1.3240     2.4480 os         1 SP6      -0.380731
     14 S1           7.1300    -1.4430    -3.1550 s6         1 SP6       1.081812
     15 O3           7.9090    -2.3830    -2.3060 o          1 SP6      -0.654257
     16 O4           7.6990    -0.0740    -3.1960 o          1 SP6      -0.654257
     17 S2           7.1320     1.4420     3.1540 s6         1 SP6       1.081812
     18 O5           7.7000     0.0730     3.1940 o          1 SP6      -0.654257
     19 O6           7.9100     2.3830     2.3050 o          1 SP6      -0.654257
     20 O7           6.7880    -1.9890    -4.4930 o          1 SP6      -0.654257
     21 O8           6.7900     1.9880     4.4920 o          1 SP6      -0.654257
     22 C8           2.0970    -5.0210    -1.2040 ca         1 SP6       0.325950
     23 C9           3.3000    -4.3270     1.2040 ca         1 SP6       0.325950
     24 C10          1.3620    -5.2770    -0.0210 ca         1 SP6       0.038008
     25 C11          3.2670    -4.2380    -1.1720 ca         1 SP6      -0.367350
     26 C12          3.8890    -3.8180     0.0210 ca         1 SP6       0.038008
     27 C13          2.0370    -4.9490     1.1720 ca         1 SP6      -0.367350
     28 H5           3.7270    -3.9880    -2.1220 ha         1 SP6       0.239327
     29 H6           1.5900    -5.2220     2.1220 ha         1 SP6       0.239327
     30 C14         -0.0000    -6.0270     0.0000 c3         1 SP6      -0.279541
     31 H7           0.0050    -6.6790     0.8780 hc         1 SP6       0.165525
     32 H8          -0.0050    -6.6790    -0.8770 hc         1 SP6       0.165525
     33 O9           1.6370    -5.4850    -2.4480 os         1 SP6      -0.380731
     34 O10          3.9320    -4.1610     2.4470 os         1 SP6      -0.380731
     35 S3           2.3140    -6.8970    -3.1540 s6         1 SP6       1.081812
     36 O11          1.8900    -8.0410    -2.3050 o          1 SP6      -0.654257
     37 O12          3.7850    -6.7050    -3.1960 o          1 SP6      -0.654257
     38 S4           4.8160    -5.4540     3.1540 s6         1 SP6       1.081812
     39 O13          3.9150    -6.6310     3.1940 o          1 SP6      -0.654257
     40 O14          6.0190    -5.6580     2.3040 o          1 SP6      -0.654257
     41 O15          1.6690    -6.8740    -4.4920 o          1 SP6      -0.654257
     42 O16          5.1180    -4.8850     4.4910 o          1 SP6      -0.654257
     43 C15         -3.3000    -4.3270    -1.2030 ca         1 SP6       0.325950
     44 C16         -2.0980    -5.0200     1.2040 ca         1 SP6       0.325950
     45 C17         -3.8890    -3.8180    -0.0210 ca         1 SP6       0.038008
     46 C18         -2.0370    -4.9490    -1.1710 ca         1 SP6      -0.367350
     47 C19         -1.3620    -5.2770     0.0210 ca         1 SP6       0.038008
     48 C20         -3.2670    -4.2380     1.1720 ca         1 SP6      -0.367350
     49 H9          -1.5900    -5.2220    -2.1220 ha         1 SP6       0.239327
     50 H10         -3.7270    -3.9870     2.1230 ha         1 SP6       0.239327
     51 C21         -5.2200    -3.0130     0.0000 c3         1 SP6      -0.279541
     52 H11         -5.7820    -3.3440     0.8780 hc         1 SP6       0.165525
     53 H12         -5.7870    -3.3350    -0.8780 hc         1 SP6       0.165525
     54 O17         -3.9320    -4.1610    -2.4470 os         1 SP6      -0.380731
     55 O18         -1.6370    -5.4840     2.4480 os         1 SP6      -0.380731
     56 S5          -4.8160    -5.4540    -3.1530 s6         1 SP6       1.081812
     57 O19         -6.0190    -5.6570    -2.3040 o          1 SP6      -0.654257
     58 O20         -3.9150    -6.6320    -3.1940 o          1 SP6      -0.654257
     59 S6          -2.3150    -6.8960     3.1550 s6         1 SP6       1.081812
     60 O21         -3.7850    -6.7040     3.1960 o          1 SP6      -0.654257
     61 O22         -1.8910    -8.0400     2.3060 o          1 SP6      -0.654257
     62 O23         -5.1180    -4.8850    -4.4910 o          1 SP6      -0.654257
     63 O24         -1.6710    -6.8730     4.4920 o          1 SP6      -0.654257
     64 C22         -5.3970     0.6940    -1.2040 ca         1 SP6       0.325950
     65 C23         -5.3970    -0.6940     1.2040 ca         1 SP6       0.325950
     66 C24         -5.2510     1.4590    -0.0210 ca         1 SP6       0.038008
     67 C25         -5.3040    -0.7100    -1.1720 ca         1 SP6      -0.367350
     68 C26         -5.2510    -1.4590     0.0210 ca         1 SP6       0.038008
     69 C27         -5.3040     0.7110     1.1710 ca         1 SP6      -0.367350
     70 H13         -5.3170    -1.2340    -2.1220 ha         1 SP6       0.239327
     71 H14         -5.3170     1.2350     2.1220 ha         1 SP6       0.239327
     72 C28         -5.2200     3.0140    -0.0010 c3         1 SP6      -0.279541
     73 H15         -5.7870     3.3350     0.8770 hc         1 SP6       0.165525
     74 H16         -5.7820     3.3440    -0.8790 hc         1 SP6       0.165525
     75 O25         -5.5680     1.3240    -2.4480 os         1 SP6      -0.380731
     76 O26         -5.5690    -1.3240     2.4480 os         1 SP6      -0.380731
     77 S7          -7.1300     1.4430    -3.1550 s6         1 SP6       1.081812
     78 O27         -7.9090     2.3830    -2.3060 o          1 SP6      -0.654257
     79 O28         -7.6990     0.0740    -3.1960 o          1 SP6      -0.654257
     80 S8          -7.1320    -1.4420     3.1540 s6         1 SP6       1.081812
     81 O29         -7.7000    -0.0730     3.1940 o          1 SP6      -0.654257
     82 O30         -7.9100    -2.3830     2.3050 o          1 SP6      -0.654257
     83 O31         -6.7880     1.9890    -4.4930 o          1 SP6      -0.654257
     84 O32         -6.7900    -1.9880     4.4920 o          1 SP6      -0.654257
     85 C29         -2.0970     5.0210    -1.2040 ca         1 SP6       0.325950
     86 C30         -3.3000     4.3270     1.2040 ca         1 SP6       0.325950
     87 C31         -1.3620     5.2770    -0.0210 ca         1 SP6       0.038008
     88 C32         -3.2670     4.2380    -1.1720 ca         1 SP6      -0.367350
     89 C33         -3.8890     3.8180     0.0210 ca         1 SP6       0.038008
     90 C34         -2.0370     4.9490     1.1720 ca         1 SP6      -0.367350
     91 H17         -3.7270     3.9880    -2.1220 ha         1 SP6       0.239327
     92 H18         -1.5900     5.2220     2.1220 ha         1 SP6       0.239327
     93 C35          0.0000     6.0270     0.0000 c3         1 SP6      -0.279541
     94 H19         -0.0050     6.6790     0.8780 hc         1 SP6       0.165525
     95 H20          0.0050     6.6790    -0.8770 hc         1 SP6       0.165525
     96 O33         -1.6370     5.4850    -2.4480 os         1 SP6      -0.380731
     97 O34         -3.9320     4.1610     2.4470 os         1 SP6      -0.380731
     98 S9          -2.3140     6.8970    -3.1540 s6         1 SP6       1.081812
     99 O35         -1.8900     8.0410    -2.3050 o          1 SP6      -0.654257
    100 O36         -3.7850     6.7050    -3.1960 o          1 SP6      -0.654257
    101 S10         -4.8160     5.4540     3.1540 s6         1 SP6       1.081812
    102 O37         -3.9150     6.6310     3.1940 o          1 SP6      -0.654257
    103 O38         -6.0190     5.6580     2.3040 o          1 SP6      -0.654257
    104 O39         -1.6690     6.8740    -4.4920 o          1 SP6      -0.654257
    105 O40         -5.1180     4.8850     4.4910 o          1 SP6      -0.654257
    106 C36          3.3000     4.3270    -1.2030 ca         1 SP6       0.325950
    107 C37          2.0980     5.0200     1.2040 ca         1 SP6       0.325950
    108 C38          3.8890     3.8180    -0.0210 ca         1 SP6       0.038008
    109 C39          2.0370     4.9490    -1.1710 ca         1 SP6      -0.367350
    110 C40          1.3620     5.2770     0.0210 ca         1 SP6       0.038008
    111 C41          3.2670     4.2380     1.1720 ca         1 SP6      -0.367350
    112 H21          1.5900     5.2220    -2.1220 ha         1 SP6       0.239327
    113 H22          3.7270     3.9870     2.1230 ha         1 SP6       0.239327
    114 C42          5.2200     3.0130     0.0000 c3         1 SP6      -0.279541
    115 H23          5.7820     3.3440     0.8780 hc         1 SP6       0.165525
    116 H24          5.7870     3.3350    -0.8780 hc         1 SP6       0.165525
    117 O41          3.9320     4.1610    -2.4470 os         1 SP6      -0.380731
    118 O42          1.6370     5.4840     2.4480 os         1 SP6      -0.380731
    119 S11          4.8160     5.4540    -3.1530 s6         1 SP6       1.081812
    120 O43          6.0190     5.6570    -2.3040 o          1 SP6      -0.654257
    121 O44          3.9150     6.6320    -3.1940 o          1 SP6      -0.654257
    122 S12          2.3150     6.8960     3.1550 s6         1 SP6       1.081812
    123 O45          3.7850     6.7040     3.1960 o          1 SP6      -0.654257
    124 O46          1.8910     8.0400     2.3060 o          1 SP6      -0.654257
    125 O47          5.1180     4.8850    -4.4910 o          1 SP6      -0.654257
    126 O48          1.6710     6.8730     4.4920 o          1 SP6      -0.654257
@<TRIPOS>BOND
     1     1     3 ar  
     2     1     4 ar  
     3     1    12 1   
     4     2     5 ar  
     5     2     6 ar  
     6     2    13 1   
     7     3     6 ar  
     8     3     9 1   
     9     4     5 ar  
    10     4     7 1   
    11     5   114 1   
    12     6     8 1   
    13     9    10 1   
    14     9    11 1   
    15     9    26 1   
    16    12    14 1   
    17    13    17 1   
    18    14    15 1   
    19    14    16 1   
    20    14    20 1   
    21    17    18 1   
    22    17    19 1   
    23    17    21 1   
    24    22    24 ar  
    25    22    25 ar  
    26    22    33 1   
    27    23    26 ar  
    28    23    27 ar  
    29    23    34 1   
    30    24    27 ar  
    31    24    30 1   
    32    25    26 ar  
    33    25    28 1   
    34    27    29 1   
    35    30    31 1   
    36    30    32 1   
    37    30    47 1   
    38    33    35 1   
    39    34    38 1   
    40    35    36 1   
    41    35    37 1   
    42    35    41 1   
    43    38    39 1   
    44    38    40 1   
    45    38    42 1   
    46    43    45 ar  
    47    43    46 ar  
    48    43    54 1   
    49    44    47 ar  
    50    44    48 ar  
    51    44    55 1   
    52    45    48 ar  
    53    45    51 1   
    54    46    47 ar  
    55    46    49 1   
    56    48    50 1   
    57    51    52 1   
    58    51    53 1   
    59    51    68 1   
    60    54    56 1   
    61    55    59 1   
    62    56    57 1   
    63    56    58 1   
    64    56    62 1   
    65    59    60 1   
    66    59    61 1   
    67    59    63 1   
    68    64    66 ar  
    69    64    67 ar  
    70    64    75 1   
    71    65    68 ar  
    72    65    69 ar  
    73    65    76 1   
    74    66    69 ar  
    75    66    72 1   
    76    67    68 ar  
    77    67    70 1   
    78    69    71 1   
    79    72    73 1   
    80    72    74 1   
    81    72    89 1   
    82    75    77 1   
    83    76    80 1   
    84    77    78 1   
    85    77    79 1   
    86    77    83 1   
    87    80    81 1   
    88    80    82 1   
    89    80    84 1   
    90    85    87 ar  
    91    85    88 ar  
    92    85    96 1   
    93    86    89 ar  
    94    86    90 ar  
    95    86    97 1   
    96    87    90 ar  
    97    87    93 1   
    98    88    89 ar  
    99    88    91 1   
   100    90    92 1   
   101    93    94 1   
   102    93    95 1   
   103    93   110 1   
   104    96    98 1   
   105    97   101 1   
   106    98    99 1   
   107    98   100 1   
   108    98   104 1   
   109   101   102 1   
   110   101   103 1   
   111   101   105 1   
   112   106   108 ar  
   113   106   109 ar  
   114   106   117 1   
   115   107   110 ar  
   116   107   111 ar  
   117   107   118 1   
   118   108   111 ar  
   119   108   114 1   
   120   109   110 ar  
   121   109   112 1   
   122   111   113 1   
   123   114   115 1   
   124   114   116 1   
   125   117   119 1   
   126   118   122 1   
   127   119   120 1   
   128   119   121 1   
   129   119   125 1   
   130   122   123 1   
   131   122   124 1   
   132   122   126 1   
@<TRIPOS>SUBSTRUCTURE
     1 SP6         1 TEMP              0 ****  ****    0 ROOT
