@<TRIPOS>MOLECULE
TEM
  196   216     1     0     0
SMALL
resp


@<TRIPOS>ATOM
      1 C1           2.8510    -1.2200     3.2920 ca         1 TEM      -0.098688
      2 C2           3.5810     1.2300     2.1030 ca         1 TEM       0.236604
      3 C3           2.4990     0.0190     3.8610 ca         1 TEM      -0.192670
      4 C4           3.5990    -1.1760     2.1030 ca         1 TEM       0.236604
      5 C5           3.9740     0.0300     1.5260 ca         1 TEM      -0.268667
      6 C6           2.8320     1.2630     3.2930 ca         1 TEM      -0.098688
      7 O1           3.9580     2.3920     1.4230 os         1 TEM      -0.389084
      8 C7           2.3930     2.6280     3.8540 c3         1 TEM       0.097183
      9 C8           2.9370     2.9770     0.6340 c3         1 TEM       0.496861
     10 O2           2.3010     4.0420     1.3180 os         1 TEM      -0.389084
     11 C9           1.1010     3.6970     1.9490 ca         1 TEM       0.236604
     12 C10          1.0650     3.0320     3.1870 ca         1 TEM      -0.098688
     13 C11         -0.2110     2.7100     3.6900 ca         1 TEM      -0.192670
     14 C12         -0.0640     4.0250     1.2670 ca         1 TEM      -0.268667
     15 C13         -1.4140     2.9940     3.0160 ca         1 TEM      -0.098688
     16 C14         -1.3000     3.6640     1.7840 ca         1 TEM       0.236604
     17 O3          -2.4130     3.9910     1.0030 os         1 TEM      -0.389084
     18 C15         -2.8140     2.5870     3.5130 c3         1 TEM       0.097183
     19 C16         -3.1850     1.2190     2.9090 ca         1 TEM      -0.098688
     20 C17         -3.7680     1.1760     1.6300 ca         1 TEM       0.236604
     21 C18         -2.9480     2.9190     0.2480 c3         1 TEM       0.496861
     22 O4          -4.0600     2.3310     0.8990 os         1 TEM      -0.389084
     23 O5           3.9940    -2.3320     1.4220 os         1 TEM      -0.389084
     24 C19          2.4320    -2.5920     3.8530 c3         1 TEM       0.097183
     25 C20          1.1100    -3.0160     3.1870 ca         1 TEM      -0.098688
     26 O6           2.3610    -4.0070     1.3170 os         1 TEM      -0.389084
     27 C21          1.1570    -3.6800     1.9490 ca         1 TEM       0.236604
     28 C22         -4.0640    -0.0310     1.0080 ca         1 TEM      -0.268667
     29 C23         -3.7490    -1.2320     1.6300 ca         1 TEM       0.236604
     30 C24         -0.0030    -4.0260     1.2670 ca         1 TEM      -0.268667
     31 C25         -1.2450    -3.6830     1.7840 ca         1 TEM       0.236604
     32 O7          -4.0240    -2.3920     0.8980 os         1 TEM      -0.389084
     33 O8          -2.3520    -4.0270     1.0030 os         1 TEM      -0.389084
     34 C26         -2.9040    -2.9630     0.2470 c3         1 TEM       0.496861
     35 C27         -0.1700    -2.7130     3.6900 ca         1 TEM      -0.192670
     36 C28         -1.3690    -3.0150     3.0160 ca         1 TEM      -0.098688
     37 C29         -2.9130    -0.0220     3.5160 ca         1 TEM      -0.192670
     38 C30         -2.7750    -2.6300     3.5120 c3         1 TEM       0.097183
     39 C31         -3.1660    -1.2670     2.9090 ca         1 TEM      -0.098688
     40 C32          2.9810    -2.9320     0.6340 c3         1 TEM       0.496861
     41 C33         -3.0540     2.7610     5.0330 c3         1 TEM       0.009024
     42 C34         -4.5440     2.7660     5.4370 c3         1 TEM      -0.077728
     43 C35         -4.9580     3.8280     6.5390 c          1 TEM       0.810402
     44 O9          -4.1130     4.7140     6.8300 o          1 TEM      -0.828470
     45 C36          2.4690     2.7700     5.3940 c3         1 TEM       0.009024
     46 C37          2.4390     4.2300     5.8920 c3         1 TEM      -0.077728
     47 C38          3.4180     4.5740     7.0910 c          1 TEM       0.810402
     48 O10          4.2980     3.7220     7.3780 o          1 TEM      -0.828470
     49 C39          2.5110    -2.7320     5.3940 c3         1 TEM       0.009024
     50 C40          2.5030    -4.1930     5.8920 c3         1 TEM      -0.077728
     51 C41          3.4870    -4.5220     7.0910 c          1 TEM       0.810402
     52 O11          4.3540    -3.6570     7.3770 o          1 TEM      -0.828470
     53 C42         -3.0120    -2.8070     5.0330 c3         1 TEM       0.009024
     54 C43         -4.5020    -2.8350     5.4360 c3         1 TEM      -0.077728
     55 C44         -4.9000    -3.9020     6.5400 c          1 TEM       0.810402
     56 O12         -4.0420    -4.7740     6.8310 o          1 TEM      -0.828470
     57 C45          3.5020     3.4570    -0.7020 ca         1 TEM       0.010253
     58 C46          4.2830     4.0660    -3.3060 ca         1 TEM      -0.484470
     59 C47          2.8340     4.4710    -1.4040 ca         1 TEM      -0.310498
     60 C48          4.5720     2.7600    -1.2830 ca         1 TEM      -0.310498
     61 C49          4.9520     3.0680    -2.5930 ca         1 TEM       0.429978
     62 C50          3.2290     4.7640    -2.7130 ca         1 TEM       0.429978
     63 C51          3.5540    -3.4040    -0.7020 ca         1 TEM       0.010253
     64 C52          4.3440    -4.0000    -3.3060 ca         1 TEM      -0.484470
     65 C53          2.9010    -4.4280    -1.4050 ca         1 TEM      -0.310498
     66 C54          4.6130    -2.6900    -1.2840 ca         1 TEM      -0.310498
     67 C55          4.9970    -2.9930    -2.5930 ca         1 TEM       0.429978
     68 C56          3.3010    -4.7140    -2.7140 ca         1 TEM       0.429978
     69 C57         -3.2850    -3.4460    -1.1530 ca         1 TEM       0.010253
     70 C58         -3.7110    -4.0630    -3.8350 ca         1 TEM      -0.484470
     71 C59         -4.2660    -2.7490    -1.8740 ca         1 TEM      -0.310498
     72 C60         -2.5300    -4.4630    -1.7560 ca         1 TEM      -0.310498
     73 C61         -2.7470    -4.7600    -3.1050 ca         1 TEM       0.429978
     74 C62         -4.4670    -3.0620    -3.2220 ca         1 TEM       0.429978
     75 C63         -3.3370     3.3960    -1.1520 ca         1 TEM       0.010253
     76 C64         -3.7730     4.0060    -3.8350 ca         1 TEM      -0.484470
     77 C65         -4.3080     2.6850    -1.8740 ca         1 TEM      -0.310498
     78 C66         -2.5970     4.4240    -1.7560 ca         1 TEM      -0.310498
     79 C67         -2.8190     4.7180    -3.1050 ca         1 TEM       0.429978
     80 C68         -4.5140     2.9940    -3.2210 ca         1 TEM       0.429978
     81 O13          6.0240    -2.3870    -3.2840 os         1 TEM      -0.343941
     82 O14         -2.0960    -5.7390    -3.8240 os         1 TEM      -0.343941
     83 O15         -5.3990    -2.4740    -4.0490 os         1 TEM      -0.343941
     84 O16          5.9870     2.4790    -3.2840 os         1 TEM      -0.343941
     85 O17          2.6750     5.7350    -3.5170 os         1 TEM      -0.343941
     86 O18         -5.4370     2.3930    -4.0490 os         1 TEM      -0.343941
     87 O19         -2.1820     5.7060    -3.8240 os         1 TEM      -0.343941
     88 C69         -0.8710    -6.3240    -3.4820 ca         1 TEM       0.186341
     89 C70          1.5250    -7.6970    -3.2640 ca         1 TEM      -0.300261
     90 C71          0.3190    -5.5670    -3.4740 ca         1 TEM       0.050628
     91 C72         -0.8660    -7.7180    -3.4140 ca         1 TEM      -0.300261
     92 C73          0.3350    -8.4280    -3.3310 ca         1 TEM       0.017177
     93 C74          1.5140    -6.3030    -3.3320 ca         1 TEM       0.186341
     94 O20          2.7610    -5.6940    -3.5170 os         1 TEM      -0.343941
     95 C75          6.5730     1.2450    -2.9750 ca         1 TEM       0.186341
     96 C76          7.9750    -1.1380    -2.7980 ca         1 TEM      -0.300261
     97 C77          7.9570     1.2580    -2.7980 ca         1 TEM      -0.300261
     98 C78          5.8420     0.0440    -3.0990 ca         1 TEM       0.050628
     99 C79          6.5910    -1.1450    -2.9750 ca         1 TEM       0.186341
    100 C80          8.6830     0.0650    -2.7340 ca         1 TEM       0.017177
    101 C81         -6.0220    -1.2400    -3.8310 ca         1 TEM       0.186341
    102 C82         -7.4360     1.1420    -3.8670 ca         1 TEM      -0.300261
    103 C83         -7.4170    -1.2540    -3.8670 ca         1 TEM      -0.300261
    104 C84         -5.2810    -0.0400    -3.8440 ca         1 TEM       0.050628
    105 C85         -6.0410     1.1490    -3.8310 ca         1 TEM       0.186341
    106 C86         -8.1450    -0.0620    -3.9130 ca         1 TEM       0.017177
    107 C87         -9.6880    -0.0740    -4.1290 c          1 TEM       0.810683
    108 O21        -10.2140    -1.2140    -4.2230 o          1 TEM      -0.802881
    109 C88          0.2050     9.9870    -3.4290 c          1 TEM       0.810683
    110 O22          1.3380    10.5340    -3.4110 o          1 TEM      -0.802881
    111 C89         10.2410     0.0770    -2.7080 c          1 TEM       0.810683
    112 O23         10.7920    -1.0550    -2.7170 o          1 TEM      -0.802881
    113 O24         -6.1300     3.6870     6.9800 o          1 TEM      -0.828470
    114 O25         -6.0740    -3.7770     6.9810 o          1 TEM      -0.828470
    115 O26          3.3120    -5.6590     7.6060 o          1 TEM      -0.828470
    116 C90          0.3560    -9.9830    -3.4290 c          1 TEM       0.810683
    117 O27          1.4970   -10.5120    -3.4110 o          1 TEM      -0.802881
    118 O28         -0.9290    10.5200    -3.5520 o          1 TEM      -0.802881
    119 O29        -10.2320     1.0580    -4.2230 o          1 TEM      -0.802881
    120 O30         -0.7700   -10.5330    -3.5510 o          1 TEM      -0.802881
    121 O31         10.7750     1.2170    -2.7170 o          1 TEM      -0.802881
    122 O32          3.2270     5.7080     7.6070 o          1 TEM      -0.828470
    123 C91          1.4180     6.3260    -3.3320 ca         1 TEM       0.186341
    124 C92         -0.9820     7.7040    -3.4140 ca         1 TEM      -0.300261
    125 C93          0.2350     5.5710    -3.4740 ca         1 TEM       0.050628
    126 C94          1.4090     7.7190    -3.2640 ca         1 TEM      -0.300261
    127 C95          0.2080     8.4320    -3.3320 ca         1 TEM       0.017177
    128 C96         -0.9660     6.3100    -3.4820 ca         1 TEM       0.186341
    129 C97          0.2610     4.0840    -3.7280 c3         1 TEM      -0.344717
    130 C98          4.3790     0.0330    -3.4650 c3         1 TEM      -0.344717
    131 C99          0.3220    -4.0800    -3.7280 c3         1 TEM      -0.344717
    132 C100        -3.7800    -0.0280    -3.9910 c3         1 TEM      -0.344717
    133 H1           1.9280     0.0140     4.7850 ha         1 TEM       0.153945
    134 H2           4.5530     0.0350     0.6090 ha         1 TEM       0.141032
    135 H3           3.1300     3.3370     3.4630 hc         1 TEM       0.074656
    136 H4           2.1830     2.2060     0.4210 h2         1 TEM      -0.005773
    137 H5          -0.2700     2.2010     4.6480 ha         1 TEM       0.153945
    138 H6          -0.0060     4.5430     0.3160 ha         1 TEM       0.141032
    139 H7          -3.4940     3.2990     3.0310 hc         1 TEM       0.074656
    140 H8          -2.1690     2.1530     0.1370 h2         1 TEM      -0.005773
    141 H9           3.1800    -3.2900     3.4630 hc         1 TEM       0.074656
    142 H10         -4.5160    -0.0340     0.0220 ha         1 TEM       0.141032
    143 H11          0.0630    -4.5420     0.3150 ha         1 TEM       0.141032
    144 H12         -2.1360    -2.1850     0.1370 h2         1 TEM      -0.005773
    145 H13         -0.2370    -2.2050     4.6480 ha         1 TEM       0.153945
    146 H14         -2.4670    -0.0190     4.5070 ha         1 TEM       0.153945
    147 H15         -3.4440    -3.3510     3.0310 hc         1 TEM       0.074656
    148 H16          2.2160    -2.1730     0.4210 h2         1 TEM      -0.005773
    149 H17         -2.5000     2.0080     5.6110 hc         1 TEM       0.021647
    150 H18         -2.6530     3.7360     5.3350 hc         1 TEM       0.021647
    151 H19         -5.1650     2.9950     4.5560 hc         1 TEM      -0.010752
    152 H20         -4.8810     1.7780     5.7730 hc         1 TEM      -0.010752
    153 H21          3.4260     2.3510     5.7300 hc         1 TEM       0.021647
    154 H22          1.6850     2.1780     5.8870 hc         1 TEM       0.021647
    155 H23          2.7290     4.9050     5.0710 hc         1 TEM      -0.010752
    156 H24          1.4280     4.5450     6.1780 hc         1 TEM      -0.010752
    157 H25          3.4610    -2.3000     5.7300 hc         1 TEM       0.021647
    158 H26          1.7180    -2.1520     5.8870 hc         1 TEM       0.021647
    159 H27          1.4970    -4.5230     6.1770 hc         1 TEM      -0.010752
    160 H28          2.8030    -4.8640     5.0710 hc         1 TEM      -0.010752
    161 H29         -2.5960    -3.7760     5.3350 hc         1 TEM       0.021647
    162 H30         -2.4700    -2.0460     5.6110 hc         1 TEM       0.021647
    163 H31         -4.8540    -1.8520     5.7710 hc         1 TEM      -0.010752
    164 H32         -5.1190    -3.0750     4.5550 hc         1 TEM      -0.010752
    165 H33          4.5770     4.2920    -4.3250 ha         1 TEM       0.165850
    166 H34          2.0250     5.0170    -0.9360 ha         1 TEM       0.155383
    167 H35          5.0940     1.9950    -0.7220 ha         1 TEM       0.155383
    168 H36          4.6410    -4.2220    -4.3250 ha         1 TEM       0.165850
    169 H37          2.1000    -4.9860    -0.9360 ha         1 TEM       0.155383
    170 H38          5.1230    -1.9180    -0.7220 ha         1 TEM       0.155383
    171 H39         -3.8670    -4.2930    -4.8840 ha         1 TEM       0.165850
    172 H40         -4.8580    -1.9830    -1.3900 ha         1 TEM       0.155383
    173 H41         -1.7920    -5.0080    -1.1820 ha         1 TEM       0.155383
    174 H42         -3.9320     4.2340    -4.8830 ha         1 TEM       0.165850
    175 H43         -4.8880     1.9100    -1.3890 ha         1 TEM       0.155383
    176 H44         -1.8670     4.9800    -1.1820 ha         1 TEM       0.155383
    177 H45          2.4650    -8.2360    -3.2190 ha         1 TEM       0.173268
    178 H46         -1.7940    -8.2740    -3.4870 ha         1 TEM       0.173268
    179 H47          8.5290    -2.0700    -2.7700 ha         1 TEM       0.173268
    180 H48          8.4970     2.1980    -2.7690 ha         1 TEM       0.173268
    181 H49         -7.9880     2.0740    -3.9210 ha         1 TEM       0.173268
    182 H50         -7.9550    -2.1940    -3.9220 ha         1 TEM       0.173268
    183 H51         -1.9190     8.2450    -3.4870 ha         1 TEM       0.173268
    184 H52          2.3400     8.2730    -3.2200 ha         1 TEM       0.173268
    185 H53          1.1860     3.7970    -4.2350 hc         1 TEM       0.099679
    186 H54          0.2040     3.5000    -2.8010 hc         1 TEM       0.099679
    187 H55         -0.5870     3.7850    -4.3510 hc         1 TEM       0.099679
    188 H56          3.7270     0.0280    -2.5830 hc         1 TEM       0.099679
    189 H57          4.1230     0.9200    -4.0520 hc         1 TEM       0.099679
    190 H58          4.1360    -0.8570    -4.0520 hc         1 TEM       0.099679
    191 H59         -0.5300    -3.7940    -4.3520 hc         1 TEM       0.099679
    192 H60          0.2560    -3.4960    -2.8020 hc         1 TEM       0.099679
    193 H61          1.2430    -3.7790    -4.2360 hc         1 TEM       0.099679
    194 H62         -3.2640    -0.0250    -3.0230 hc         1 TEM       0.099679
    195 H63         -3.4410    -0.9140    -4.5360 hc         1 TEM       0.099679
    196 H64         -3.4540     0.8630    -4.5350 hc         1 TEM       0.099679
@<TRIPOS>BOND
     1     1     3 ar  
     2     1     4 ar  
     3     1    24 1   
     4     2     5 ar  
     5     2     6 ar  
     6     2     7 1   
     7     3     6 ar  
     8     3   133 1   
     9     4     5 ar  
    10     4    23 1   
    11     5   134 1   
    12     6     8 1   
    13     7     9 1   
    14     8    12 1   
    15     8    45 1   
    16     8   135 1   
    17     9    10 1   
    18     9    57 1   
    19     9   136 1   
    20    10    11 1   
    21    11    12 ar  
    22    11    14 ar  
    23    12    13 ar  
    24    13    15 ar  
    25    13   137 1   
    26    14    16 ar  
    27    14   138 1   
    28    15    16 ar  
    29    15    18 1   
    30    16    17 1   
    31    17    21 1   
    32    18    19 1   
    33    18    41 1   
    34    18   139 1   
    35    19    20 ar  
    36    19    37 ar  
    37    20    22 1   
    38    20    28 ar  
    39    21    22 1   
    40    21    75 1   
    41    21   140 1   
    42    23    40 1   
    43    24    25 1   
    44    24    49 1   
    45    24   141 1   
    46    25    27 ar  
    47    25    35 ar  
    48    26    27 1   
    49    26    40 1   
    50    27    30 ar  
    51    28    29 ar  
    52    28   142 1   
    53    29    32 1   
    54    29    39 ar  
    55    30    31 ar  
    56    30   143 1   
    57    31    33 1   
    58    31    36 ar  
    59    32    34 1   
    60    33    34 1   
    61    34    69 1   
    62    34   144 1   
    63    35    36 ar  
    64    35   145 1   
    65    36    38 1   
    66    37    39 ar  
    67    37   146 1   
    68    38    39 1   
    69    38    53 1   
    70    38   147 1   
    71    40    63 1   
    72    40   148 1   
    73    41    42 1   
    74    41   149 1   
    75    41   150 1   
    76    42    43 1   
    77    42   151 1   
    78    42   152 1   
    79    43    44 1   
    80    43   113 1   
    81    45    46 1   
    82    45   153 1   
    83    45   154 1   
    84    46    47 1   
    85    46   155 1   
    86    46   156 1   
    87    47    48 1   
    88    47   122 1   
    89    49    50 1   
    90    49   157 1   
    91    49   158 1   
    92    50    51 1   
    93    50   159 1   
    94    50   160 1   
    95    51    52 1   
    96    51   115 1   
    97    53    54 1   
    98    53   161 1   
    99    53   162 1   
   100    54    55 1   
   101    54   163 1   
   102    54   164 1   
   103    55    56 1   
   104    55   114 1   
   105    57    59 ar  
   106    57    60 ar  
   107    58    61 ar  
   108    58    62 ar  
   109    58   165 1   
   110    59    62 ar  
   111    59   166 1   
   112    60    61 ar  
   113    60   167 1   
   114    61    84 1   
   115    62    85 1   
   116    63    65 ar  
   117    63    66 ar  
   118    64    67 ar  
   119    64    68 ar  
   120    64   168 1   
   121    65    68 ar  
   122    65   169 1   
   123    66    67 ar  
   124    66   170 1   
   125    67    81 1   
   126    68    94 1   
   127    69    71 ar  
   128    69    72 ar  
   129    70    73 ar  
   130    70    74 ar  
   131    70   171 1   
   132    71    74 ar  
   133    71   172 1   
   134    72    73 ar  
   135    72   173 1   
   136    73    82 1   
   137    74    83 1   
   138    75    77 ar  
   139    75    78 ar  
   140    76    79 ar  
   141    76    80 ar  
   142    76   174 1   
   143    77    80 ar  
   144    77   175 1   
   145    78    79 ar  
   146    78   176 1   
   147    79    87 1   
   148    80    86 1   
   149    81    99 1   
   150    82    88 1   
   151    83   101 1   
   152    84    95 1   
   153    85   123 1   
   154    86   105 1   
   155    87   128 1   
   156    88    90 ar  
   157    88    91 ar  
   158    89    92 ar  
   159    89    93 ar  
   160    89   177 1   
   161    90    93 ar  
   162    90   131 1   
   163    91    92 ar  
   164    91   178 1   
   165    92   116 1   
   166    93    94 1   
   167    95    97 ar  
   168    95    98 ar  
   169    96    99 ar  
   170    96   100 ar  
   171    96   179 1   
   172    97   100 ar  
   173    97   180 1   
   174    98    99 ar  
   175    98   130 1   
   176   100   111 1   
   177   101   103 ar  
   178   101   104 ar  
   179   102   105 ar  
   180   102   106 ar  
   181   102   181 1   
   182   103   106 ar  
   183   103   182 1   
   184   104   105 ar  
   185   104   132 1   
   186   106   107 1   
   187   107   108 1   
   188   107   119 1   
   189   109   110 1   
   190   109   118 1   
   191   109   127 1   
   192   111   112 1   
   193   111   121 1   
   194   116   117 1   
   195   116   120 1   
   196   123   125 ar  
   197   123   126 ar  
   198   124   127 ar  
   199   124   128 ar  
   200   124   183 1   
   201   125   128 ar  
   202   125   129 1   
   203   126   127 ar  
   204   126   184 1   
   205   129   185 1   
   206   129   186 1   
   207   129   187 1   
   208   130   188 1   
   209   130   189 1   
   210   130   190 1   
   211   131   191 1   
   212   131   192 1   
   213   131   193 1   
   214   132   194 1   
   215   132   195 1   
   216   132   196 1   
@<TRIPOS>SUBSTRUCTURE
     1 TEM         1 TEMP              0 ****  ****    0 ROOT
